
     RDKit          3D

  0  0  0  0  0  0  0  0  0  0999 V3000
M  V30 BEGIN CTAB
M  V30 COUNTS 236 266 0 0 0
M  V30 BEGIN ATOM
M  V30 1 C 6.5975 -4.6497 -0.5303 0
M  V30 2 C 5.4354 -4.4352 -1.2741 0
M  V30 3 C 4.7443 -3.2447 -1.1700 0
M  V30 4 C 5.1650 -2.2360 -0.2993 0
M  V30 5 C 4.4494 -0.9505 -0.2110 0
M  V30 6 C 5.1616 0.2398 -0.0760 0
M  V30 7 C 4.5072 1.4676 -0.0025 0
M  V30 8 C 5.2786 2.7166 0.1481 0
M  V30 9 C 4.8177 3.7528 0.9629 0
M  V30 10 C 5.5180 4.9368 1.0855 0
M  V30 11 C 6.7286 5.1215 0.4118 0
M  V30 12 C 7.2210 4.0712 -0.3652 0
M  V30 13 C 6.4997 2.9023 -0.5064 0
M  V30 14 C 3.1136 1.4903 -0.0682 0
M  V30 15 C 2.3780 0.3145 -0.1964 0
M  V30 16 C 0.9022 0.3333 -0.2565 0
M  V30 17 C 0.1504 -0.5938 0.4645 0
M  V30 18 C -1.2301 -0.6017 0.3967 0
M  V30 19 C -1.9153 0.3176 -0.3957 0
M  V30 20 C -3.3901 0.3089 -0.4726 0
M  V30 21 C -4.1038 1.5033 -0.4182 0
M  V30 22 C -5.4948 1.5178 -0.4928 0
M  V30 23 C -6.2295 2.7963 -0.4290 0
M  V30 24 C -7.3163 3.0481 -1.2670 0
M  V30 25 C -8.0134 4.2380 -1.1954 0
M  V30 26 C -7.6391 5.2322 -0.2871 0
M  V30 27 C -6.5376 4.9969 0.5365 0
M  V30 28 C -5.8552 3.7979 0.4700 0
M  V30 29 C -6.1748 0.3086 -0.6269 0
M  V30 30 C -5.4851 -0.9022 -0.6806 0
M  V30 31 C -6.2171 -2.1756 -0.8301 0
M  V30 32 C -5.7316 -3.1967 -1.6521 0
M  V30 33 C -6.4202 -4.3835 -1.8074 0
M  V30 34 C -7.6449 -4.5860 -1.1676 0
M  V30 35 C -8.1279 -3.5783 -0.3284 0
M  V30 36 C -7.4202 -2.4040 -0.1587 0
M  V30 37 C -4.0931 -0.8867 -0.6003 0
M  V30 38 C -1.1639 1.2498 -1.1103 0
M  V30 39 C 0.2172 1.2587 -1.0419 0
M  V30 40 C 3.0588 -0.8988 -0.2678 0
M  V30 41 C 6.2961 -2.4817 0.4817 0
M  V30 42 C 7.0084 -3.6582 0.3640 0
M  V30 43 H 5.1162 -5.1914 -1.9758 0
M  V30 44 H 3.8814 -3.0789 -1.7971 0
M  V30 45 H 6.2397 0.2083 -0.0319 0
M  V30 46 H 3.9020 3.6254 1.5200 0
M  V30 47 H 5.1461 5.7123 1.7393 0
M  V30 48 H 8.1504 4.2057 -0.8976 0
M  V30 49 H 6.8770 2.1301 -1.1594 0
M  V30 50 H 2.5928 2.4351 -0.0240 0
M  V30 51 H 0.6534 -1.3016 1.1074 0
M  V30 52 H -1.7867 -1.3160 0.9861 0
M  V30 53 H -3.5665 2.4349 -0.3210 0
M  V30 54 H -7.6121 2.3094 -1.9960 0
M  V30 55 H -8.8346 4.4168 -1.8738 0
M  V30 56 H -6.2556 5.7416 1.2656 0
M  V30 57 H -5.0339 3.6215 1.1483 0
M  V30 58 H -7.2523 0.3104 -0.6920 0
M  V30 59 H -4.8155 -3.0440 -2.2025 0
M  V30 60 H -6.0449 -5.1478 -2.4719 0
M  V30 61 H -9.0452 -3.7323 0.2207 0
M  V30 62 H -7.8051 -1.6549 0.5163 0
M  V30 63 H -3.5467 -1.8177 -0.6361 0
M  V30 64 H -1.6667 1.9600 -1.7501 0
M  V30 65 H 0.7726 1.9761 -1.6279 0
M  V30 66 H 2.4937 -1.8137 -0.3661 0
M  V30 67 H 6.6173 -1.7434 1.2003 0
M  V30 68 H 7.8695 -3.8290 0.9933 0
M  V30 69 Zn -7.6817 -7.8254 -1.3622 0 CHG=2
M  V30 70 C -12.4047 -8.0984 -2.3867 0
M  V30 71 C -11.7279 -6.9157 -2.1237 0
M  V30 72 C -10.3647 -6.9634 -1.8318 0
M  V30 73 H -12.2459 -5.9697 -2.1484 0
M  V30 74 N -9.6873 -8.1234 -1.7994 0
M  V30 75 C -9.6114 -5.7512 -1.5702 0
M  V30 76 C -10.3400 -9.2501 -2.0485 0
M  V30 77 C -11.6967 -9.2904 -2.3456 0
M  V30 78 H -9.7601 -10.1616 -2.0053 0
M  V30 79 H -12.1821 -10.2337 -2.5386 0
M  V30 80 H -13.4588 -8.0908 -2.6176 0
M  V30 81 N -8.3444 -5.7765 -1.3961 0
M  V30 82 H -10.1745 -4.8184 -1.5718 0
M  V30 83 C -8.1556 -8.1171 3.5441 0
M  V30 84 C -7.0154 -7.6697 2.8890 0
M  V30 85 C -6.9981 -7.6615 1.4965 0
M  V30 86 H -6.1531 -7.3388 3.4468 0
M  V30 87 N -8.0493 -8.0578 0.7625 0
M  V30 88 C -5.8175 -7.2438 0.7544 0
M  V30 89 C -9.1305 -8.4865 1.3916 0
M  V30 90 C -9.2311 -8.5398 2.7799 0
M  V30 91 H -9.9543 -8.8115 0.7723 0
M  V30 92 H -10.1327 -8.9071 3.2436 0
M  V30 93 H -8.1992 -8.1405 4.6220 0
M  V30 94 N -5.8200 -7.2762 -0.5119 0
M  V30 95 H -4.9599 -6.9270 1.3491 0
M  V30 96 H -4.9611 -6.9820 -0.9656 0
M  V30 97 C -6.2216 -12.4104 -2.4369 0
M  V30 98 C -6.2851 -11.3680 -3.3532 0
M  V30 99 C -6.7053 -10.1140 -2.9170 0
M  V30 100 H -6.0166 -11.5249 -4.3865 0
M  V30 101 N -7.0543 -9.8736 -1.6423 0
M  V30 102 C -6.7938 -8.9846 -3.8338 0
M  V30 103 C -6.9954 -10.8718 -0.7767 0
M  V30 104 C -6.5842 -12.1561 -1.1239 0
M  V30 105 H -7.2923 -10.6483 0.2384 0
M  V30 106 H -6.5581 -12.9360 -0.3796 0
M  V30 107 H -5.9029 -13.3947 -2.7438 0
M  V30 108 N -7.1096 -7.8389 -3.3915 0
M  V30 109 H -6.5748 -9.1890 -4.8816 0
M  V30 110 H -7.1677 -7.1023 -4.0892 0
M  V30 111 Zn 9.5554 6.7016 0.8519 0 CHG=2
M  V30 112 C 7.5618 11.0959 0.2828 0
M  V30 113 C 6.8478 9.9067 0.2579 0
M  V30 114 C 7.5275 8.7025 0.4414 0
M  V30 115 H 5.7815 9.9082 0.0941 0
M  V30 116 N 8.8543 8.6611 0.6413 0
M  V30 117 C 6.8247 7.4343 0.4029 0
M  V30 118 C 9.5311 9.7999 0.6660 0
M  V30 119 C 8.9314 11.0418 0.4932 0
M  V30 120 H 10.5958 9.7236 0.8357 0
M  V30 121 H 9.5260 11.9407 0.5235 0
M  V30 122 H 7.0629 12.0421 0.1414 0
M  V30 123 N 7.4461 6.3199 0.4759 0
M  V30 124 H 5.7439 7.4823 0.2657 0
M  V30 125 C 9.0461 6.4531 5.7574 0
M  V30 126 C 9.3635 5.3738 4.9426 0
M  V30 127 C 9.4732 5.5761 3.5691 0
M  V30 128 H 9.5314 4.3953 5.3651 0
M  V30 129 N 9.2723 6.7752 3.0010 0
M  V30 130 C 9.8405 4.4904 2.6695 0
M  V30 131 C 8.9728 7.7992 3.7825 0
M  V30 132 C 8.8512 7.6904 5.1652 0
M  V30 133 H 8.8306 8.7539 3.2961 0
M  V30 134 H 8.6161 8.5600 5.7580 0
M  V30 135 H 8.9616 6.3310 6.8262 0
M  V30 136 N 9.9345 4.7051 1.4247 0
M  V30 137 H 10.0317 3.5221 3.1324 0
M  V30 138 H 10.2124 3.9097 0.8582 0
M  V30 139 C 14.3553 7.7338 0.6062 0
M  V30 140 C 13.5558 7.4243 -0.4876 0
M  V30 141 C 12.2040 7.1623 -0.2804 0
M  V30 142 H 13.9734 7.3853 -1.4820 0
M  V30 143 N 11.6401 7.2002 0.9395 0
M  V30 144 C 11.3197 6.8335 -1.3892 0
M  V30 145 C 12.4065 7.5020 1.9747 0
M  V30 146 C 13.7673 7.7750 1.8602 0
M  V30 147 H 11.9222 7.5350 2.9407 0
M  V30 148 H 14.3463 8.0169 2.7373 0
M  V30 149 H 15.4070 7.9398 0.4790 0
M  V30 150 N 10.1072 6.5330 -1.1635 0
M  V30 151 H 11.7577 6.8611 -2.3865 0
M  V30 152 H 9.5497 6.3285 -1.9881 0
M  V30 153 Zn 6.6477 -7.8720 -0.7249 0 CHG=2
M  V30 154 C 11.4506 -8.1411 -1.3529 0
M  V30 155 C 10.7503 -6.9601 -1.1518 0
M  V30 156 C 9.3681 -7.0125 -0.9738 0
M  V30 157 H 11.2644 -6.0117 -1.1371 0
M  V30 158 N 8.6928 -8.1739 -0.9931 0
M  V30 159 C 8.5918 -5.8039 -0.7770 0
M  V30 160 C 9.3675 -9.2987 -1.1837 0
M  V30 161 C 10.7448 -9.3350 -1.3666 0
M  V30 162 H 8.7893 -10.2121 -1.1859 0
M  V30 163 H 11.2477 -10.2771 -1.5150 0
M  V30 164 H 12.5202 -8.1306 -1.4949 0
M  V30 165 N 7.3153 -5.8360 -0.7083 0
M  V30 166 H 9.1476 -4.8676 -0.7314 0
M  V30 167 C 6.6933 -8.1771 4.2060 0
M  V30 168 C 5.6145 -7.7255 3.4565 0
M  V30 169 C 5.7214 -7.7027 2.0681 0
M  V30 170 H 4.7042 -7.4043 3.9387 0
M  V30 171 N 6.8353 -8.0881 1.4266 0
M  V30 172 C 4.6090 -7.2814 1.2284 0
M  V30 173 C 7.8586 -8.5178 2.1455 0
M  V30 174 C 7.8353 -8.5858 3.5364 0
M  V30 175 H 8.7364 -8.8316 1.5986 0
M  V30 176 H 8.6936 -8.9549 4.0748 0
M  V30 177 H 6.6396 -8.2143 5.2831 0
M  V30 178 N 4.7212 -7.3097 -0.0329 0
M  V30 179 H 3.7036 -6.9657 1.7481 0
M  V30 180 H 3.9044 -7.0137 -0.5576 0
M  V30 181 C 5.2943 -12.4477 -1.9071 0
M  V30 182 C 5.4288 -11.4063 -2.8170 0
M  V30 183 C 5.8067 -10.1501 -2.3500 0
M  V30 184 H 5.2467 -11.5655 -3.8687 0
M  V30 185 N 6.0496 -9.9072 -1.0513 0
M  V30 186 C 5.9635 -9.0209 -3.2577 0
M  V30 187 C 5.9220 -10.9039 -0.1912 0
M  V30 188 C 5.5451 -12.1899 -0.5689 0
M  V30 189 H 6.1322 -10.6773 0.8446 0
M  V30 190 H 5.4591 -12.9682 0.1725 0
M  V30 191 H 5.0062 -13.4337 -2.2376 0
M  V30 192 N 6.2446 -7.8752 -2.7922 0
M  V30 193 H 5.8236 -9.2245 -4.3190 0
M  V30 194 H 6.3527 -7.1379 -3.4833 0
M  V30 195 Zn -7.7179 8.4945 -0.3510 0 CHG=2
M  V30 196 C -12.5372 8.7362 0.0445 0
M  V30 197 C -11.8140 7.5543 -0.0324 0
M  V30 198 C -10.4228 7.6138 -0.1113 0
M  V30 199 H -12.3179 6.6003 -0.0309 0
M  V30 200 N -9.7608 8.7828 -0.1160 0
M  V30 201 C -9.6258 6.4045 -0.1773 0
M  V30 202 C -10.4567 9.9081 -0.0362 0
M  V30 203 C -11.8437 9.9373 0.0464 0
M  V30 204 H -9.8873 10.8270 -0.0344 0
M  V30 205 H -12.3634 10.8799 0.1095 0
M  V30 206 H -13.6145 8.7204 0.1032 0
M  V30 207 N -8.3473 6.4375 -0.1882 0
M  V30 208 H -10.1737 5.4621 -0.1878 0
M  V30 209 C -6.2716 9.1479 4.3067 0
M  V30 210 C -5.4207 8.8165 3.2598 0
M  V30 211 C -5.9554 8.6487 1.9852 0
M  V30 212 H -4.3619 8.6927 3.4274 0
M  V30 213 N -7.2655 8.7928 1.7318 0
M  V30 214 C -5.1135 8.3034 0.8464 0
M  V30 215 C -8.0708 9.1093 2.7313 0
M  V30 216 C -7.6220 9.2981 4.0365 0
M  V30 217 H -9.1183 9.2229 2.4915 0
M  V30 218 H -8.3192 9.5595 4.8165 0
M  V30 219 H -5.8881 9.2876 5.3056 0
M  V30 220 N -5.6371 8.1247 -0.2925 0
M  V30 221 H -4.0447 8.2097 1.0436 0
M  V30 222 H -5.0014 7.8846 -1.0464 0
M  V30 223 C -6.8192 13.0457 -2.0523 0
M  V30 224 C -7.1120 11.9468 -2.8501 0
M  V30 225 C -7.3521 10.7175 -2.2410 0
M  V30 226 H -7.1542 12.0412 -3.9242 0
M  V30 227 N -7.3108 10.5524 -0.9085 0
M  V30 228 C -7.6655 9.5347 -3.0313 0
M  V30 229 C -7.0375 11.6051 -0.1554 0
M  V30 230 C -6.7841 12.8704 -0.6781 0
M  V30 231 H -7.0227 11.4426 0.9136 0
M  V30 232 H -6.5697 13.6961 -0.0184 0
M  V30 233 H -6.6286 14.0118 -2.4939 0
M  V30 234 N -7.8313 8.4156 -2.4573 0
M  V30 235 H -7.7424 9.6771 -4.1089 0
M  V30 236 H -8.0512 7.6395 -3.0748 0
M  V30 END ATOM
M  V30 BEGIN BOND
M  V30 1 2 1 2
M  V30 2 1 2 3
M  V30 3 2 3 4
M  V30 4 1 4 5
M  V30 5 2 5 6
M  V30 6 1 6 7
M  V30 7 1 7 8
M  V30 8 2 8 9
M  V30 9 1 9 10
M  V30 10 2 10 11
M  V30 11 1 11 12
M  V30 12 2 12 13
M  V30 13 2 7 14
M  V30 14 1 14 15
M  V30 15 1 15 16
M  V30 16 2 16 17
M  V30 17 1 17 18
M  V30 18 2 18 19
M  V30 19 1 19 20
M  V30 20 2 20 21
M  V30 21 1 21 22
M  V30 22 1 22 23
M  V30 23 2 23 24
M  V30 24 1 24 25
M  V30 25 2 25 26
M  V30 26 1 26 27
M  V30 27 2 27 28
M  V30 28 2 22 29
M  V30 29 1 29 30
M  V30 30 1 30 31
M  V30 31 2 31 32
M  V30 32 1 32 33
M  V30 33 2 33 34
M  V30 34 1 34 35
M  V30 35 2 35 36
M  V30 36 2 30 37
M  V30 37 1 19 38
M  V30 38 2 38 39
M  V30 39 2 15 40
M  V30 40 1 4 41
M  V30 41 2 41 42
M  V30 42 1 42 1
M  V30 43 1 40 5
M  V30 44 1 13 8
M  V30 45 1 39 16
M  V30 46 1 37 20
M  V30 47 1 28 23
M  V30 48 1 36 31
M  V30 49 1 2 43
M  V30 50 1 3 44
M  V30 51 1 6 45
M  V30 52 1 9 46
M  V30 53 1 10 47
M  V30 54 1 12 48
M  V30 55 1 13 49
M  V30 56 1 14 50
M  V30 57 1 17 51
M  V30 58 1 18 52
M  V30 59 1 21 53
M  V30 60 1 24 54
M  V30 61 1 25 55
M  V30 62 1 27 56
M  V30 63 1 28 57
M  V30 64 1 29 58
M  V30 65 1 32 59
M  V30 66 1 33 60
M  V30 67 1 35 61
M  V30 68 1 36 62
M  V30 69 1 37 63
M  V30 70 1 38 64
M  V30 71 1 39 65
M  V30 72 1 40 66
M  V30 73 1 41 67
M  V30 74 1 42 68
M  V30 75 1 70 80
M  V30 76 2 70 77
M  V30 77 1 71 70
M  V30 78 2 72 71
M  V30 79 1 72 74
M  V30 80 1 73 71
M  V30 81 2 74 76
M  V30 82 1 75 72
M  V30 83 1 76 77
M  V30 84 1 76 78
M  V30 85 1 77 79
M  V30 86 2 81 75
M  V30 87 1 82 75
M  V30 88 1 83 93
M  V30 89 2 83 90
M  V30 90 1 84 83
M  V30 91 2 85 84
M  V30 92 1 85 87
M  V30 93 1 86 84
M  V30 94 2 87 89
M  V30 95 1 88 85
M  V30 96 1 89 90
M  V30 97 1 89 91
M  V30 98 1 90 92
M  V30 99 2 94 88
M  V30 100 1 95 88
M  V30 101 1 96 94
M  V30 102 1 97 107
M  V30 103 2 97 104
M  V30 104 1 98 97
M  V30 105 2 99 98
M  V30 106 1 99 101
M  V30 107 1 100 98
M  V30 108 2 101 103
M  V30 109 1 102 99
M  V30 110 1 103 104
M  V30 111 1 103 105
M  V30 112 1 104 106
M  V30 113 2 108 102
M  V30 114 1 109 102
M  V30 115 1 110 108
M  V30 116 9 81 69
M  V30 117 9 74 69
M  V30 118 9 94 69
M  V30 119 9 87 69
M  V30 120 9 108 69
M  V30 121 9 101 69
M  V30 122 1 112 122
M  V30 123 2 112 119
M  V30 124 1 113 112
M  V30 125 2 114 113
M  V30 126 1 114 116
M  V30 127 1 115 113
M  V30 128 2 116 118
M  V30 129 1 117 114
M  V30 130 1 118 119
M  V30 131 1 118 120
M  V30 132 1 119 121
M  V30 133 2 123 117
M  V30 134 1 124 117
M  V30 135 1 125 135
M  V30 136 2 125 132
M  V30 137 1 126 125
M  V30 138 2 127 126
M  V30 139 1 127 129
M  V30 140 1 128 126
M  V30 141 2 129 131
M  V30 142 1 130 127
M  V30 143 1 131 132
M  V30 144 1 131 133
M  V30 145 1 132 134
M  V30 146 2 136 130
M  V30 147 1 137 130
M  V30 148 1 138 136
M  V30 149 1 139 149
M  V30 150 2 139 146
M  V30 151 1 140 139
M  V30 152 2 141 140
M  V30 153 1 141 143
M  V30 154 1 142 140
M  V30 155 2 143 145
M  V30 156 1 144 141
M  V30 157 1 145 146
M  V30 158 1 145 147
M  V30 159 1 146 148
M  V30 160 2 150 144
M  V30 161 1 151 144
M  V30 162 1 152 150
M  V30 163 9 123 111
M  V30 164 9 116 111
M  V30 165 9 150 111
M  V30 166 9 143 111
M  V30 167 9 136 111
M  V30 168 9 129 111
M  V30 169 1 154 164
M  V30 170 2 154 161
M  V30 171 1 155 154
M  V30 172 2 156 155
M  V30 173 1 156 158
M  V30 174 1 157 155
M  V30 175 2 158 160
M  V30 176 1 159 156
M  V30 177 1 160 161
M  V30 178 1 160 162
M  V30 179 1 161 163
M  V30 180 2 165 159
M  V30 181 1 166 159
M  V30 182 1 167 177
M  V30 183 2 167 174
M  V30 184 1 168 167
M  V30 185 2 169 168
M  V30 186 1 169 171
M  V30 187 1 170 168
M  V30 188 2 171 173
M  V30 189 1 172 169
M  V30 190 1 173 174
M  V30 191 1 173 175
M  V30 192 1 174 176
M  V30 193 2 178 172
M  V30 194 1 179 172
M  V30 195 1 180 178
M  V30 196 1 181 191
M  V30 197 2 181 188
M  V30 198 1 182 181
M  V30 199 2 183 182
M  V30 200 1 183 185
M  V30 201 1 184 182
M  V30 202 2 185 187
M  V30 203 1 186 183
M  V30 204 1 187 188
M  V30 205 1 187 189
M  V30 206 1 188 190
M  V30 207 2 192 186
M  V30 208 1 193 186
M  V30 209 1 194 192
M  V30 210 9 165 153
M  V30 211 9 158 153
M  V30 212 9 192 153
M  V30 213 9 185 153
M  V30 214 9 178 153
M  V30 215 9 171 153
M  V30 216 1 196 206
M  V30 217 2 196 203
M  V30 218 1 197 196
M  V30 219 2 198 197
M  V30 220 1 198 200
M  V30 221 1 199 197
M  V30 222 2 200 202
M  V30 223 1 201 198
M  V30 224 1 202 203
M  V30 225 1 202 204
M  V30 226 1 203 205
M  V30 227 2 207 201
M  V30 228 1 208 201
M  V30 229 1 209 219
M  V30 230 2 209 216
M  V30 231 1 210 209
M  V30 232 2 211 210
M  V30 233 1 211 213
M  V30 234 1 212 210
M  V30 235 2 213 215
M  V30 236 1 214 211
M  V30 237 1 215 216
M  V30 238 1 215 217
M  V30 239 1 216 218
M  V30 240 2 220 214
M  V30 241 1 221 214
M  V30 242 1 222 220
M  V30 243 1 223 233
M  V30 244 2 223 230
M  V30 245 1 224 223
M  V30 246 2 225 224
M  V30 247 1 225 227
M  V30 248 1 226 224
M  V30 249 2 227 229
M  V30 250 1 228 225
M  V30 251 1 229 230
M  V30 252 1 229 231
M  V30 253 1 230 232
M  V30 254 2 234 228
M  V30 255 1 235 228
M  V30 256 1 236 234
M  V30 257 9 207 195
M  V30 258 9 200 195
M  V30 259 9 234 195
M  V30 260 9 227 195
M  V30 261 9 220 195
M  V30 262 9 213 195
M  V30 263 1 11 123
M  V30 264 1 1 165
M  V30 265 1 34 81
M  V30 266 1 26 207
M  V30 END BOND
M  V30 END CTAB
M  END

$$$$
