
     RDKit          3D

  0  0  0  0  0  0  0  0  0  0999 V3000
M  V30 BEGIN CTAB
M  V30 COUNTS 220 248 0 0 0
M  V30 BEGIN ATOM
M  V30 1 C 4.9790 3.6939 -0.1949 0
M  V30 2 C 5.4969 2.5848 -0.8721 0
M  V30 3 C 4.7966 1.3997 -0.9427 0
M  V30 4 C 3.5528 1.2483 -0.3125 0
M  V30 5 N 2.8579 0.0345 -0.3733 0
M  V30 6 C 3.5801 -1.1671 -0.3895 0
M  V30 7 C 4.7443 -1.3081 0.3743 0
M  V30 8 C 5.4841 -2.4702 0.3388 0
M  V30 9 C 5.0865 -3.5561 -0.4516 0
M  V30 10 C 3.8976 -3.4324 -1.1769 0
M  V30 11 C 3.1659 -2.2628 -1.1556 0
M  V30 12 C 1.4481 0.0034 -0.3980 0
M  V30 13 C 0.7411 -1.0109 0.2534 0
M  V30 14 C -0.6401 -1.0489 0.2359 0
M  V30 15 C -1.3797 -0.0697 -0.4313 0
M  V30 16 N -2.7885 -0.0860 -0.4309 0
M  V30 17 C -3.4998 -1.2923 -0.4747 0
M  V30 18 C -3.0488 -2.3818 -1.2277 0
M  V30 19 C -3.7648 -3.5596 -1.2752 0
M  V30 20 C -4.9705 -3.7135 -0.5737 0
M  V30 21 C -5.4270 -2.6169 0.1648 0
M  V30 22 C -4.7080 -1.4415 0.2200 0
M  V30 23 C -3.4992 1.1215 -0.4026 0
M  V30 24 C -4.6771 1.2698 -1.1437 0
M  V30 25 C -5.3975 2.4431 -1.1071 0
M  V30 26 C -4.9739 3.5323 -0.3328 0
M  V30 27 C -3.7797 3.3942 0.3803 0
M  V30 28 C -3.0618 2.2158 0.3518 0
M  V30 29 C -0.6724 0.9392 -1.0913 0
M  V30 30 C 0.7086 0.9754 -1.0759 0
M  V30 31 C 3.0483 2.3480 0.3911 0
M  V30 32 C 3.7393 3.5411 0.4414 0
M  V30 33 H 6.4388 2.6857 -1.3886 0
M  V30 34 H 5.2057 0.5772 -1.5094 0
M  V30 35 H 5.0635 -0.4939 1.0075 0
M  V30 36 H 6.3589 -2.5566 0.9658 0
M  V30 37 H 3.5847 -4.2515 -1.8057 0
M  V30 38 H 2.2738 -2.1794 -1.7576 0
M  V30 39 H 1.2826 -1.7699 0.7981 0
M  V30 40 H -1.1549 -1.8363 0.7656 0
M  V30 41 H -2.1383 -2.2890 -1.8006 0
M  V30 42 H -3.4108 -4.3555 -1.9135 0
M  V30 43 H -6.3382 -2.7150 0.7334 0
M  V30 44 H -5.0755 -0.6240 0.8218 0
M  V30 45 H -5.0184 0.4558 -1.7651 0
M  V30 46 H -6.2771 2.5361 -1.7262 0
M  V30 47 H -3.4448 4.2086 1.0029 0
M  V30 48 H -2.1597 2.1266 0.9382 0
M  V30 49 H -1.2133 1.6953 -1.6400 0
M  V30 50 H 1.2227 1.7576 -1.6137 0
M  V30 51 H 2.1096 2.2550 0.9164 0
M  V30 52 H 3.3369 4.3536 1.0286 0
M  V30 53 Zn 7.8777 5.3421 0.0284 0 CHG=2
M  V30 54 C 5.7452 9.6818 -0.3657 0
M  V30 55 C 5.0551 8.4790 -0.3701 0
M  V30 56 C 5.7642 7.2834 -0.2391 0
M  V30 57 H 3.9816 8.4627 -0.4772 0
M  V30 58 N 7.1002 7.2680 -0.1111 0
M  V30 59 C 5.0763 6.0084 -0.2477 0
M  V30 60 C 7.7556 8.4199 -0.1077 0
M  V30 61 C 7.1251 9.6526 -0.2297 0
M  V30 62 H 8.8290 8.3636 0.0026 0
M  V30 63 H 7.7032 10.5627 -0.2183 0
M  V30 64 H 5.2222 10.6203 -0.4658 0
M  V30 65 N 5.6969 4.8894 -0.1850 0
M  V30 66 H 3.9910 6.0563 -0.3484 0
M  V30 67 C 7.7618 5.0501 4.9572 0
M  V30 68 C 8.0957 3.9998 4.1116 0
M  V30 69 C 8.0811 4.2121 2.7351 0
M  V30 70 H 8.3717 3.0368 4.5127 0
M  V30 71 N 7.7445 5.3930 2.1928 0
M  V30 72 C 8.4624 3.1613 1.8018 0
M  V30 73 C 7.4342 6.3906 3.0034 0
M  V30 74 C 7.4302 6.2705 4.3909 0
M  V30 75 H 7.1861 7.3340 2.5379 0
M  V30 76 H 7.1816 7.1197 5.0074 0
M  V30 77 H 7.7712 4.9202 6.0284 0
M  V30 78 N 8.4054 3.3712 0.5535 0
M  V30 79 H 8.7992 2.2225 2.2419 0
M  V30 80 H 8.7160 2.6071 -0.0387 0
M  V30 81 C 12.5907 6.5731 -0.6376 0
M  V30 82 C 11.7027 6.2511 -1.6575 0
M  V30 83 C 10.3884 5.9276 -1.3291 0
M  V30 84 H 12.0249 6.2486 -2.6876 0
M  V30 85 N 9.9413 5.9193 -0.0599 0
M  V30 86 C 9.4190 5.5778 -2.3558 0
M  V30 87 C 10.7915 6.2349 0.9041 0
M  V30 88 C 12.1236 6.5662 0.6671 0
M  V30 89 H 10.4013 6.2315 1.9126 0
M  V30 90 H 12.7740 6.8157 1.4906 0
M  V30 91 H 13.6168 6.8248 -0.8592 0
M  V30 92 N 8.2474 5.2115 -2.0265 0
M  V30 93 H 9.7583 5.6459 -3.3887 0
M  V30 94 H 7.6292 4.9951 -2.8032 0
M  V30 95 Zn 5.2578 -6.8459 -0.5744 0 CHG=2
M  V30 96 C 10.0987 -6.9087 -0.7265 0
M  V30 97 C 9.3354 -5.7517 -0.6618 0
M  V30 98 C 7.9441 -5.8544 -0.6165 0
M  V30 99 H 9.8096 -4.7828 -0.6470 0
M  V30 100 N 7.3209 -7.0447 -0.6396 0
M  V30 101 C 7.1134 -4.6708 -0.5470 0
M  V30 102 C 8.0551 -8.1464 -0.7042 0
M  V30 103 C 9.4447 -8.1318 -0.7465 0
M  V30 104 H 7.5172 -9.0839 -0.7169 0
M  V30 105 H 9.9961 -9.0572 -0.7934 0
M  V30 106 H 11.1762 -6.8586 -0.7601 0
M  V30 107 N 5.8332 -4.7320 -0.5356 0
M  V30 108 H 7.6413 -3.7171 -0.5365 0
M  V30 109 C 4.8207 -7.2209 4.3385 0
M  V30 110 C 3.7852 -6.8714 3.4809 0
M  V30 111 C 4.0380 -6.7994 2.1131 0
M  V30 112 H 2.7976 -6.6668 3.8648 0
M  V30 113 N 5.2507 -7.0426 1.5912 0
M  V30 114 C 2.9824 -6.4824 1.1638 0
M  V30 115 C 6.2315 -7.3770 2.4124 0
M  V30 116 C 6.0664 -7.4835 3.7919 0
M  V30 117 H 7.1928 -7.5800 1.9627 0
M  V30 118 H 6.8973 -7.7718 4.4160 0
M  V30 119 H 4.6556 -7.2935 5.4025 0
M  V30 120 N 3.2368 -6.4303 -0.0763 0
M  V30 121 H 1.9902 -6.3129 1.5845 0
M  V30 122 H 2.4497 -6.2271 -0.6838 0
M  V30 123 C 4.3233 -11.4851 -1.9115 0
M  V30 124 C 4.4894 -10.4256 -2.7956 0
M  V30 125 C 4.7292 -9.1529 -2.2835 0
M  V30 126 H 4.4358 -10.5841 -3.8618 0
M  V30 127 N 4.8105 -8.9090 -0.9636 0
M  V30 128 C 4.9072 -8.0066 -3.1632 0
M  V30 129 C 4.6541 -9.9235 -0.1286 0
M  V30 130 C 4.4064 -11.2269 -0.5523 0
M  V30 131 H 4.7332 -9.6975 0.9258 0
M  V30 132 H 4.2898 -12.0182 0.1711 0
M  V30 133 H 4.1390 -12.4837 -2.2769 0
M  V30 134 N 5.0561 -6.8471 -2.6676 0
M  V30 135 H 4.8980 -8.2075 -4.2340 0
M  V30 136 H 5.1872 -6.1009 -3.3447 0
M  V30 137 Zn -7.9119 -5.3601 -0.7102 0 CHG=2
M  V30 138 C -5.7476 -9.6917 -0.8657 0
M  V30 139 C -5.0630 -8.4869 -0.8147 0
M  V30 140 C -5.7836 -7.2938 -0.7296 0
M  V30 141 H -3.9847 -8.4669 -0.8445 0
M  V30 142 N -7.1251 -7.2824 -0.6960 0
M  V30 143 C -5.0965 -6.0209 -0.6613 0
M  V30 144 C -7.7748 -8.4370 -0.7328 0
M  V30 145 C -7.1333 -9.6671 -0.8172 0
M  V30 146 H -8.8529 -8.3853 -0.6877 0
M  V30 147 H -7.7079 -10.5792 -0.8442 0
M  V30 148 H -5.2160 -10.6278 -0.9382 0
M  V30 149 N -5.7101 -4.8973 -0.5943 0
M  V30 150 H -4.0072 -6.0781 -0.6452 0
M  V30 151 C -9.0811 -5.0344 4.0575 0
M  V30 152 C -9.3383 -4.0481 3.1132 0
M  V30 153 C -8.9205 -4.2484 1.7998 0
M  V30 154 H -9.8575 -3.1432 3.3895 0
M  V30 155 N -8.2741 -5.3601 1.4112 0
M  V30 156 C -9.1687 -3.2555 0.7633 0
M  V30 157 C -8.0367 -6.2970 2.3138 0
M  V30 158 C -8.4191 -6.1808 3.6483 0
M  V30 159 H -7.5254 -7.1842 1.9676 0
M  V30 160 H -8.2073 -6.9774 4.3437 0
M  V30 161 H -9.3960 -4.9115 5.0825 0
M  V30 162 N -8.7058 -3.4353 -0.4034 0
M  V30 163 H -9.7516 -2.3819 1.0556 0
M  V30 164 H -8.9227 -2.7158 -1.0858 0
M  V30 165 C -12.3628 -6.7024 -2.3895 0
M  V30 166 C -11.2909 -6.3269 -3.1907 0
M  V30 167 C -10.0825 -5.9896 -2.5850 0
M  V30 168 H -11.3915 -6.2938 -4.2647 0
M  V30 169 N -9.9103 -6.0147 -1.2512 0
M  V30 170 C -8.9315 -5.5871 -3.3776 0
M  V30 171 C -10.9334 -6.3831 -0.4969 0
M  V30 172 C -12.1774 -6.7344 -1.0165 0
M  V30 173 H -10.7623 -6.4075 0.5708 0
M  V30 174 H -12.9773 -7.0279 -0.3552 0
M  V30 175 H -13.3135 -6.9652 -2.8281 0
M  V30 176 N -7.8570 -5.2224 -2.8053 0
M  V30 177 H -9.0536 -5.6180 -4.4598 0
M  V30 178 H -7.1019 -4.9617 -3.4325 0
M  V30 179 Zn -5.1628 6.8419 -0.3955 0 CHG=2
M  V30 180 C -9.9950 6.8721 -0.2550 0
M  V30 181 C -9.2196 5.7216 -0.2551 0
M  V30 182 C -7.8285 5.8367 -0.2632 0
M  V30 183 H -9.6837 4.7477 -0.2527 0
M  V30 184 N -7.2172 7.0333 -0.2684 0
M  V30 185 C -6.9878 4.6588 -0.2622 0
M  V30 186 C -7.9630 8.1290 -0.2577 0
M  V30 187 C -9.3530 8.1016 -0.2516 0
M  V30 188 H -7.4347 9.0717 -0.2490 0
M  V30 189 H -9.9140 9.0224 -0.2446 0
M  V30 190 H -11.0724 6.8122 -0.2555 0
M  V30 191 N -5.7065 4.7203 -0.2692 0
M  V30 192 H -7.5115 3.7030 -0.2344 0
M  V30 193 C -4.0608 7.5331 4.3582 0
M  V30 194 C -3.1216 7.3109 3.3588 0
M  V30 195 C -3.5623 7.1077 2.0534 0
M  V30 196 H -2.0669 7.2987 3.5870 0
M  V30 197 N -4.8640 7.1151 1.7244 0
M  V30 198 C -2.6265 6.8758 0.9622 0
M  V30 199 C -5.7530 7.3303 2.6787 0
M  V30 200 C -5.4017 7.5444 4.0103 0
M  V30 201 H -6.7915 7.3395 2.3803 0
M  V30 202 H -6.1657 7.7210 4.7506 0
M  V30 203 H -3.7518 7.6978 5.3789 0
M  V30 204 N -3.0618 6.6295 -0.2019 0
M  V30 205 H -1.5662 6.9203 1.2159 0
M  V30 206 H -2.3639 6.4803 -0.9233 0
M  V30 207 C -4.4477 11.4551 -2.0075 0
M  V30 208 C -4.6495 10.3512 -2.8272 0
M  V30 209 C -4.8347 9.1014 -2.2404 0
M  V30 210 H -4.6643 10.4579 -3.9010 0
M  V30 211 N -4.8272 8.9211 -0.9082 0
M  V30 212 C -5.0482 7.9125 -3.0528 0
M  V30 213 C -4.6408 9.9785 -0.1348 0
M  V30 214 C -4.4449 11.2635 -0.6349 0
M  V30 215 H -4.6522 9.8037 0.9324 0
M  V30 216 H -4.3007 12.0915 0.0410 0
M  V30 217 H -4.3019 12.4369 -2.4315 0
M  V30 218 N -5.1582 6.7754 -2.4983 0
M  V30 219 H -5.1011 8.0639 -4.1305 0
M  V30 220 H -5.3112 5.9980 -3.1342 0
M  V30 END ATOM
M  V30 BEGIN BOND
M  V30 1 2 1 2
M  V30 2 1 2 3
M  V30 3 2 3 4
M  V30 4 1 4 5
M  V30 5 1 5 6
M  V30 6 2 6 7
M  V30 7 1 7 8
M  V30 8 2 8 9
M  V30 9 1 9 10
M  V30 10 2 10 11
M  V30 11 1 5 12
M  V30 12 2 12 13
M  V30 13 1 13 14
M  V30 14 2 14 15
M  V30 15 1 15 16
M  V30 16 1 16 17
M  V30 17 2 17 18
M  V30 18 1 18 19
M  V30 19 2 19 20
M  V30 20 1 20 21
M  V30 21 2 21 22
M  V30 22 1 16 23
M  V30 23 2 23 24
M  V30 24 1 24 25
M  V30 25 2 25 26
M  V30 26 1 26 27
M  V30 27 2 27 28
M  V30 28 1 15 29
M  V30 29 2 29 30
M  V30 30 1 4 31
M  V30 31 2 31 32
M  V30 32 1 32 1
M  V30 33 1 11 6
M  V30 34 1 30 12
M  V30 35 1 22 17
M  V30 36 1 28 23
M  V30 37 1 2 33
M  V30 38 1 3 34
M  V30 39 1 7 35
M  V30 40 1 8 36
M  V30 41 1 10 37
M  V30 42 1 11 38
M  V30 43 1 13 39
M  V30 44 1 14 40
M  V30 45 1 18 41
M  V30 46 1 19 42
M  V30 47 1 21 43
M  V30 48 1 22 44
M  V30 49 1 24 45
M  V30 50 1 25 46
M  V30 51 1 27 47
M  V30 52 1 28 48
M  V30 53 1 29 49
M  V30 54 1 30 50
M  V30 55 1 31 51
M  V30 56 1 32 52
M  V30 57 1 54 64
M  V30 58 2 54 61
M  V30 59 1 55 54
M  V30 60 2 56 55
M  V30 61 1 56 58
M  V30 62 1 57 55
M  V30 63 2 58 60
M  V30 64 1 59 56
M  V30 65 1 60 61
M  V30 66 1 60 62
M  V30 67 1 61 63
M  V30 68 2 65 59
M  V30 69 1 66 59
M  V30 70 1 67 77
M  V30 71 2 67 74
M  V30 72 1 68 67
M  V30 73 2 69 68
M  V30 74 1 69 71
M  V30 75 1 70 68
M  V30 76 2 71 73
M  V30 77 1 72 69
M  V30 78 1 73 74
M  V30 79 1 73 75
M  V30 80 1 74 76
M  V30 81 2 78 72
M  V30 82 1 79 72
M  V30 83 1 80 78
M  V30 84 1 81 91
M  V30 85 2 81 88
M  V30 86 1 82 81
M  V30 87 2 83 82
M  V30 88 1 83 85
M  V30 89 1 84 82
M  V30 90 2 85 87
M  V30 91 1 86 83
M  V30 92 1 87 88
M  V30 93 1 87 89
M  V30 94 1 88 90
M  V30 95 2 92 86
M  V30 96 1 93 86
M  V30 97 1 94 92
M  V30 98 9 65 53
M  V30 99 9 58 53
M  V30 100 9 92 53
M  V30 101 9 85 53
M  V30 102 9 78 53
M  V30 103 9 71 53
M  V30 104 1 96 106
M  V30 105 2 96 103
M  V30 106 1 97 96
M  V30 107 2 98 97
M  V30 108 1 98 100
M  V30 109 1 99 97
M  V30 110 2 100 102
M  V30 111 1 101 98
M  V30 112 1 102 103
M  V30 113 1 102 104
M  V30 114 1 103 105
M  V30 115 2 107 101
M  V30 116 1 108 101
M  V30 117 1 109 119
M  V30 118 2 109 116
M  V30 119 1 110 109
M  V30 120 2 111 110
M  V30 121 1 111 113
M  V30 122 1 112 110
M  V30 123 2 113 115
M  V30 124 1 114 111
M  V30 125 1 115 116
M  V30 126 1 115 117
M  V30 127 1 116 118
M  V30 128 2 120 114
M  V30 129 1 121 114
M  V30 130 1 122 120
M  V30 131 1 123 133
M  V30 132 2 123 130
M  V30 133 1 124 123
M  V30 134 2 125 124
M  V30 135 1 125 127
M  V30 136 1 126 124
M  V30 137 2 127 129
M  V30 138 1 128 125
M  V30 139 1 129 130
M  V30 140 1 129 131
M  V30 141 1 130 132
M  V30 142 2 134 128
M  V30 143 1 135 128
M  V30 144 1 136 134
M  V30 145 9 107 95
M  V30 146 9 100 95
M  V30 147 9 134 95
M  V30 148 9 127 95
M  V30 149 9 120 95
M  V30 150 9 113 95
M  V30 151 1 138 148
M  V30 152 2 138 145
M  V30 153 1 139 138
M  V30 154 2 140 139
M  V30 155 1 140 142
M  V30 156 1 141 139
M  V30 157 2 142 144
M  V30 158 1 143 140
M  V30 159 1 144 145
M  V30 160 1 144 146
M  V30 161 1 145 147
M  V30 162 2 149 143
M  V30 163 1 150 143
M  V30 164 1 151 161
M  V30 165 2 151 158
M  V30 166 1 152 151
M  V30 167 2 153 152
M  V30 168 1 153 155
M  V30 169 1 154 152
M  V30 170 2 155 157
M  V30 171 1 156 153
M  V30 172 1 157 158
M  V30 173 1 157 159
M  V30 174 1 158 160
M  V30 175 2 162 156
M  V30 176 1 163 156
M  V30 177 1 164 162
M  V30 178 1 165 175
M  V30 179 2 165 172
M  V30 180 1 166 165
M  V30 181 2 167 166
M  V30 182 1 167 169
M  V30 183 1 168 166
M  V30 184 2 169 171
M  V30 185 1 170 167
M  V30 186 1 171 172
M  V30 187 1 171 173
M  V30 188 1 172 174
M  V30 189 2 176 170
M  V30 190 1 177 170
M  V30 191 1 178 176
M  V30 192 9 149 137
M  V30 193 9 142 137
M  V30 194 9 176 137
M  V30 195 9 169 137
M  V30 196 9 162 137
M  V30 197 9 155 137
M  V30 198 1 180 190
M  V30 199 2 180 187
M  V30 200 1 181 180
M  V30 201 2 182 181
M  V30 202 1 182 184
M  V30 203 1 183 181
M  V30 204 2 184 186
M  V30 205 1 185 182
M  V30 206 1 186 187
M  V30 207 1 186 188
M  V30 208 1 187 189
M  V30 209 2 191 185
M  V30 210 1 192 185
M  V30 211 1 193 203
M  V30 212 2 193 200
M  V30 213 1 194 193
M  V30 214 2 195 194
M  V30 215 1 195 197
M  V30 216 1 196 194
M  V30 217 2 197 199
M  V30 218 1 198 195
M  V30 219 1 199 200
M  V30 220 1 199 201
M  V30 221 1 200 202
M  V30 222 2 204 198
M  V30 223 1 205 198
M  V30 224 1 206 204
M  V30 225 1 207 217
M  V30 226 2 207 214
M  V30 227 1 208 207
M  V30 228 2 209 208
M  V30 229 1 209 211
M  V30 230 1 210 208
M  V30 231 2 211 213
M  V30 232 1 212 209
M  V30 233 1 213 214
M  V30 234 1 213 215
M  V30 235 1 214 216
M  V30 236 2 218 212
M  V30 237 1 219 212
M  V30 238 1 220 218
M  V30 239 9 191 179
M  V30 240 9 184 179
M  V30 241 9 218 179
M  V30 242 9 211 179
M  V30 243 9 204 179
M  V30 244 9 197 179
M  V30 245 1 1 65
M  V30 246 1 9 107
M  V30 247 1 20 149
M  V30 248 1 26 191
M  V30 END BOND
M  V30 END CTAB
M  END

$$$$
