
     RDKit          3D

  0  0  0  0  0  0  0  0  0  0999 V3000
M  V30 BEGIN CTAB
M  V30 COUNTS 226 255 0 0 0
M  V30 BEGIN ATOM
M  V30 1 C -4.8412 -4.9019 1.1497 0
M  V30 2 C -3.5749 -5.3957 1.4650 0
M  V30 3 C -2.4379 -4.7013 1.0991 0
M  V30 4 C -2.5134 -3.4994 0.3914 0
M  V30 5 C -1.2998 -2.7754 -0.0383 0
M  V30 6 C -0.2182 -3.4832 -0.5545 0
M  V30 7 C 0.9196 -2.8227 -1.0121 0
M  V30 8 C 2.0589 -3.6031 -1.5350 0
M  V30 9 C 3.3751 -3.2414 -1.2466 0
M  V30 10 C 4.4442 -3.9775 -1.7204 0
M  V30 11 C 4.2347 -5.1254 -2.4880 0
M  V30 12 C 2.9204 -5.5105 -2.7573 0
M  V30 13 C 1.8589 -4.7536 -2.3031 0
M  V30 14 C 0.9583 -1.4300 -0.9517 0
M  V30 15 C -0.0987 -0.6902 -0.4166 0
M  V30 16 C -0.0337 0.7892 -0.3307 0
M  V30 17 C -1.1968 1.5620 -0.3483 0
M  V30 18 C -1.1527 2.9498 -0.2272 0
M  V30 19 C -2.3906 3.7548 -0.1848 0
M  V30 20 C -2.5186 4.8185 0.7124 0
M  V30 21 C -3.6705 5.5780 0.7709 0
M  V30 22 C -4.7547 5.2875 -0.0582 0
M  V30 23 C -4.6279 4.2350 -0.9689 0
M  V30 24 C -3.4657 3.4905 -1.0329 0
M  V30 25 C 0.0859 3.5784 -0.1370 0
M  V30 26 C 1.2683 2.8423 -0.1521 0
M  V30 27 C 2.5700 3.5385 -0.1083 0
M  V30 28 C 2.7537 4.7458 -0.7897 0
M  V30 29 C 3.9649 5.4072 -0.7721 0
M  V30 30 C 5.0614 4.8644 -0.0998 0
M  V30 31 C 4.8820 3.6693 0.6010 0
M  V30 32 C 3.6565 3.0297 0.6041 0
M  V30 33 C 1.1911 1.4516 -0.2239 0
M  V30 34 C -1.2204 -1.3859 0.0399 0
M  V30 35 C -3.7821 -3.0218 0.0624 0
M  V30 36 C -4.9237 -3.7024 0.4368 0
M  V30 37 H -3.4946 -6.3059 2.0396 0
M  V30 38 H -1.4718 -5.0857 1.3899 0
M  V30 39 H -0.2658 -4.5606 -0.6038 0
M  V30 40 H 3.5668 -2.3786 -0.6272 0
M  V30 41 H 5.4515 -3.6867 -1.4608 0
M  V30 42 H 2.7472 -6.3841 -3.3672 0
M  V30 43 H 0.8549 -5.0458 -2.5707 0
M  V30 44 H 1.8134 -0.9182 -1.3662 0
M  V30 45 H -2.1585 1.0829 -0.4479 0
M  V30 46 H -1.7116 5.0352 1.3960 0
M  V30 47 H -3.7618 6.3726 1.4957 0
M  V30 48 H -5.4334 4.0252 -1.6569 0
M  V30 49 H -3.3864 2.7019 -1.7656 0
M  V30 50 H 0.1277 4.6541 -0.0574 0
M  V30 51 H 1.9412 5.1583 -1.3680 0
M  V30 52 H 4.0933 6.3269 -1.3224 0
M  V30 53 H 5.6991 3.2603 1.1769 0
M  V30 54 H 3.5405 2.1252 1.1813 0
M  V30 55 H 2.1067 0.8810 -0.2057 0
M  V30 56 H -2.0355 -0.8479 0.4997 0
M  V30 57 H -3.8759 -2.1143 -0.5143 0
M  V30 58 H -5.8909 -3.3259 0.1384 0
M  V30 59 Zn 6.8302 7.6151 0.1392 0 CHG=2
M  V30 60 C 11.0204 5.3917 -0.8930 0
M  V30 61 C 9.8017 4.7401 -0.7703 0
M  V30 62 C 8.6594 5.4843 -0.4756 0
M  V30 63 H 9.7327 3.6719 -0.9035 0
M  V30 64 N 8.7057 6.8152 -0.3056 0
M  V30 65 C 7.3620 4.8464 -0.3628 0
M  V30 66 C 9.8717 7.4328 -0.4233 0
M  V30 67 C 11.0564 6.7665 -0.7160 0
M  V30 68 H 9.8677 8.5031 -0.2741 0
M  V30 69 H 11.9807 7.3150 -0.8013 0
M  V30 70 H 11.9200 4.8415 -1.1213 0
M  V30 71 N 6.2948 5.5212 -0.1681 0
M  V30 72 H 7.3404 3.7643 -0.4971 0
M  V30 73 C 7.1813 7.0593 5.0402 0
M  V30 74 C 6.0248 7.4308 4.3665 0
M  V30 75 C 6.0614 7.5494 2.9790 0
M  V30 76 H 5.1125 7.6326 4.9062 0
M  V30 77 N 7.1733 7.3106 2.2657 0
M  V30 78 C 4.8883 7.9627 2.2238 0
M  V30 79 C 8.2713 6.9597 2.9134 0
M  V30 80 C 8.3270 6.8217 4.2984 0
M  V30 81 H 9.1539 6.7858 2.3142 0
M  V30 82 H 9.2516 6.5410 4.7774 0
M  V30 83 H 7.1875 6.9654 6.1152 0
M  V30 84 N 4.9476 8.0638 0.9620 0
M  V30 85 H 3.9909 8.1793 2.8041 0
M  V30 86 H 4.0971 8.3720 0.5020 0
M  V30 87 C 8.0024 12.3687 -0.3087 0
M  V30 88 C 7.5448 11.5647 -1.3456 0
M  V30 89 C 7.2538 10.2281 -1.0833 0
M  V30 90 H 7.4146 11.9656 -2.3391 0
M  V30 91 N 7.4038 9.6818 0.1366 0
M  V30 92 C 6.7675 9.3437 -2.1307 0
M  V30 93 C 7.8452 10.4526 1.1170 0
M  V30 94 C 8.1551 11.7999 0.9456 0
M  V30 95 H 7.9646 9.9840 2.0840 0
M  V30 96 H 8.5120 12.3832 1.7796 0
M  V30 97 H 8.2354 13.4085 -0.4796 0
M  V30 98 N 6.4391 8.1493 -1.8505 0
M  V30 99 H 6.7036 9.7648 -3.1337 0
M  V30 100 H 6.1227 7.5925 -2.6389 0
M  V30 101 Zn -6.6330 -7.6698 1.2696 0 CHG=2
M  V30 102 C -10.4300 -5.4685 3.3403 0
M  V30 103 C -9.2488 -4.8287 2.9936 0
M  V30 104 C -8.2187 -5.5702 2.4149 0
M  V30 105 H -9.1232 -3.7715 3.1683 0
M  V30 106 N -8.3343 -6.8885 2.1880 0
M  V30 107 C -6.9710 -4.9377 2.0348 0
M  V30 108 C -9.4631 -7.4953 2.5242 0
M  V30 109 C -10.5394 -6.8298 3.1001 0
M  V30 110 H -9.5161 -8.5573 2.3312 0
M  V30 111 H -11.4381 -7.3692 3.3531 0
M  V30 112 H -11.2444 -4.9196 3.7871 0
M  V30 113 N -5.9920 -5.5969 1.5438 0
M  V30 114 H -6.9040 -3.8633 2.2097 0
M  V30 115 C -4.3773 -9.5097 5.2355 0
M  V30 116 C -3.8894 -9.5996 3.9379 0
M  V30 117 C -4.6152 -9.0146 2.9032 0
M  V30 118 H -2.9650 -10.1161 3.7300 0
M  V30 119 N -5.7747 -8.3705 3.1134 0
M  V30 120 C -4.1475 -9.0655 1.5249 0
M  V30 121 C -6.2359 -8.2912 4.3498 0
M  V30 122 C -5.5724 -8.8407 5.4446 0
M  V30 123 H -7.1748 -7.7730 4.4847 0
M  V30 124 H -5.9913 -8.7481 6.4340 0
M  V30 125 H -3.8394 -9.9540 6.0588 0
M  V30 126 N -4.7929 -8.4619 0.6169 0
M  V30 127 H -3.2324 -9.6303 1.3423 0
M  V30 128 H -4.4177 -8.5364 -0.3231 0
M  V30 129 C -8.7621 -11.8000 -0.3877 0
M  V30 130 C -8.6838 -10.6075 -1.0965 0
M  V30 131 C -8.0702 -9.5081 -0.5003 0
M  V30 132 H -9.0887 -10.5309 -2.0938 0
M  V30 133 N -7.5531 -9.5545 0.7400 0
M  V30 134 C -7.9527 -8.2408 -1.2040 0
M  V30 135 C -7.6393 -10.6914 1.4112 0
M  V30 136 C -8.2305 -11.8405 0.8914 0
M  V30 137 H -7.2253 -10.6950 2.4102 0
M  V30 138 H -8.2730 -12.7420 1.4819 0
M  V30 139 H -9.2282 -12.6704 -0.8234 0
M  V30 140 N -7.3337 -7.2689 -0.6698 0
M  V30 141 H -8.4138 -8.1889 -2.1900 0
M  V30 142 H -7.2977 -6.4218 -1.2285 0
M  V30 143 Zn 5.6624 -8.0355 -2.9116 0 CHG=2
M  V30 144 C 9.5487 -6.1817 -5.1520 0
M  V30 145 C 8.4908 -5.4236 -4.6710 0
M  V30 146 C 7.4317 -6.0651 -4.0288 0
M  V30 147 H 8.4811 -4.3519 -4.7944 0
M  V30 148 N 7.4050 -7.3976 -3.8641 0
M  V30 149 C 6.3043 -5.3124 -3.5129 0
M  V30 150 C 8.4181 -8.1168 -4.3243 0
M  V30 151 C 9.5130 -7.5562 -4.9727 0
M  V30 152 H 8.3622 -9.1845 -4.1664 0
M  V30 153 H 10.3142 -8.1850 -5.3265 0
M  V30 154 H 10.3807 -5.7123 -5.6539 0
M  V30 155 N 5.2943 -5.8912 -2.9865 0
M  V30 156 H 6.3505 -4.2289 -3.6263 0
M  V30 157 C 7.4132 -7.7608 1.7064 0
M  V30 158 C 6.0822 -7.9837 1.3780 0
M  V30 159 C 5.7200 -8.0395 0.0340 0
M  V30 160 H 5.3390 -8.1207 2.1482 0
M  V30 161 N 6.6095 -7.8769 -0.9575 0
M  V30 162 C 4.3464 -8.3027 -0.3692 0
M  V30 163 C 7.8752 -7.6667 -0.6386 0
M  V30 164 C 8.3272 -7.6019 0.6774 0
M  V30 165 H 8.5693 -7.5515 -1.4592 0
M  V30 166 H 9.3732 -7.4383 0.8830 0
M  V30 167 H 7.7272 -7.7206 2.7380 0
M  V30 168 N 4.0442 -8.3529 -1.5982 0
M  V30 169 H 3.6273 -8.4579 0.4359 0
M  V30 170 H 3.0728 -8.5576 -1.8088 0
M  V30 171 C 6.1423 -12.8508 -3.7672 0
M  V30 172 C 5.5050 -11.9542 -4.6162 0
M  V30 173 C 5.4446 -10.6106 -4.2543 0
M  V30 174 H 5.0617 -12.2895 -5.5413 0
M  V30 175 N 5.9863 -10.1445 -3.1149 0
M  V30 176 C 4.7819 -9.6309 -5.1019 0
M  V30 177 C 6.5961 -11.0038 -2.3147 0
M  V30 178 C 6.6976 -12.3645 -2.5944 0
M  V30 179 H 7.0295 -10.5986 -1.4108 0
M  V30 180 H 7.2058 -13.0218 -1.9068 0
M  V30 181 H 6.2046 -13.8985 -4.0187 0
M  V30 182 N 4.6701 -8.4275 -4.7119 0
M  V30 183 H 4.3981 -9.9914 -6.0558 0
M  V30 184 H 4.2062 -7.8032 -5.3653 0
M  V30 185 Zn -6.3311 8.1836 -0.0484 0 CHG=2
M  V30 186 C -10.7130 6.1353 0.3289 0
M  V30 187 C -9.5257 5.4263 0.2184 0
M  V30 188 C -8.3204 6.1252 0.1513 0
M  V30 189 H -9.5294 4.3479 0.1841 0
M  V30 190 N -8.2748 7.4665 0.1928 0
M  V30 191 C -7.0565 5.4217 0.0525 0
M  V30 192 C -9.4112 8.1388 0.3023 0
M  V30 193 C -10.6543 7.5201 0.3735 0
M  V30 194 H -9.3328 9.2162 0.3385 0
M  V30 195 H -11.5507 8.1128 0.4613 0
M  V30 196 H -11.6603 5.6212 0.3797 0
M  V30 197 N -5.9350 6.0345 0.0496 0
M  V30 198 H -7.1124 4.3332 0.0140 0
M  V30 199 C -5.2265 9.2238 4.6324 0
M  V30 200 C -4.3677 9.4168 3.5576 0
M  V30 201 C -4.7940 9.0564 2.2816 0
M  V30 202 H -3.3870 9.8426 3.7037 0
M  V30 203 N -6.0084 8.5319 2.0516 0
M  V30 204 C -3.9343 9.2266 1.1176 0
M  V30 205 C -6.8227 8.3531 3.0776 0
M  V30 206 C -6.4769 8.6798 4.3870 0
M  V30 207 H -7.7950 7.9357 2.8568 0
M  V30 208 H -7.1780 8.5154 5.1898 0
M  V30 209 H -4.9269 9.4954 5.6329 0
M  V30 210 N -4.3272 8.8301 -0.0194 0
M  V30 211 H -2.9644 9.6937 1.2932 0
M  V30 212 H -3.6855 8.9784 -0.7916 0
M  V30 213 C -7.6182 12.7130 -1.5105 0
M  V30 214 C -7.4139 11.6320 -2.3594 0
M  V30 215 C -7.0687 10.3993 -1.8100 0
M  V30 216 H -7.5179 11.7422 -3.4277 0
M  V30 217 N -6.9297 10.2127 -0.4857 0
M  V30 218 C -6.8325 9.2401 -2.6564 0
M  V30 219 C -7.1338 11.2454 0.3160 0
M  V30 220 C -7.4763 12.5136 -0.1465 0
M  V30 221 H -7.0258 11.0626 1.3764 0
M  V30 222 H -7.6301 13.3212 0.5516 0
M  V30 223 H -7.8831 13.6816 -1.9058 0
M  V30 224 N -6.4572 8.1407 -2.1430 0
M  V30 225 H -6.9905 9.3796 -3.7254 0
M  V30 226 H -6.3142 7.3839 -2.8049 0
M  V30 END ATOM
M  V30 BEGIN BOND
M  V30 1 2 1 2
M  V30 2 1 2 3
M  V30 3 2 3 4
M  V30 4 1 4 5
M  V30 5 2 5 6
M  V30 6 1 6 7
M  V30 7 1 7 8
M  V30 8 2 8 9
M  V30 9 1 9 10
M  V30 10 2 10 11
M  V30 11 1 11 12
M  V30 12 2 12 13
M  V30 13 2 7 14
M  V30 14 1 14 15
M  V30 15 1 15 16
M  V30 16 2 16 17
M  V30 17 1 17 18
M  V30 18 1 18 19
M  V30 19 2 19 20
M  V30 20 1 20 21
M  V30 21 2 21 22
M  V30 22 1 22 23
M  V30 23 2 23 24
M  V30 24 2 18 25
M  V30 25 1 25 26
M  V30 26 1 26 27
M  V30 27 2 27 28
M  V30 28 1 28 29
M  V30 29 2 29 30
M  V30 30 1 30 31
M  V30 31 2 31 32
M  V30 32 2 26 33
M  V30 33 2 15 34
M  V30 34 1 4 35
M  V30 35 2 35 36
M  V30 36 1 36 1
M  V30 37 1 34 5
M  V30 38 1 13 8
M  V30 39 1 33 16
M  V30 40 1 24 19
M  V30 41 1 32 27
M  V30 42 1 2 37
M  V30 43 1 3 38
M  V30 44 1 6 39
M  V30 45 1 9 40
M  V30 46 1 10 41
M  V30 47 1 12 42
M  V30 48 1 13 43
M  V30 49 1 14 44
M  V30 50 1 17 45
M  V30 51 1 20 46
M  V30 52 1 21 47
M  V30 53 1 23 48
M  V30 54 1 24 49
M  V30 55 1 25 50
M  V30 56 1 28 51
M  V30 57 1 29 52
M  V30 58 1 31 53
M  V30 59 1 32 54
M  V30 60 1 33 55
M  V30 61 1 34 56
M  V30 62 1 35 57
M  V30 63 1 36 58
M  V30 64 1 60 70
M  V30 65 2 60 67
M  V30 66 1 61 60
M  V30 67 2 62 61
M  V30 68 1 62 64
M  V30 69 1 63 61
M  V30 70 2 64 66
M  V30 71 1 65 62
M  V30 72 1 66 67
M  V30 73 1 66 68
M  V30 74 1 67 69
M  V30 75 2 71 65
M  V30 76 1 72 65
M  V30 77 1 73 83
M  V30 78 2 73 80
M  V30 79 1 74 73
M  V30 80 2 75 74
M  V30 81 1 75 77
M  V30 82 1 76 74
M  V30 83 2 77 79
M  V30 84 1 78 75
M  V30 85 1 79 80
M  V30 86 1 79 81
M  V30 87 1 80 82
M  V30 88 2 84 78
M  V30 89 1 85 78
M  V30 90 1 86 84
M  V30 91 1 87 97
M  V30 92 2 87 94
M  V30 93 1 88 87
M  V30 94 2 89 88
M  V30 95 1 89 91
M  V30 96 1 90 88
M  V30 97 2 91 93
M  V30 98 1 92 89
M  V30 99 1 93 94
M  V30 100 1 93 95
M  V30 101 1 94 96
M  V30 102 2 98 92
M  V30 103 1 99 92
M  V30 104 1 100 98
M  V30 105 9 71 59
M  V30 106 9 64 59
M  V30 107 9 84 59
M  V30 108 9 77 59
M  V30 109 9 98 59
M  V30 110 9 91 59
M  V30 111 1 102 112
M  V30 112 2 102 109
M  V30 113 1 103 102
M  V30 114 2 104 103
M  V30 115 1 104 106
M  V30 116 1 105 103
M  V30 117 2 106 108
M  V30 118 1 107 104
M  V30 119 1 108 109
M  V30 120 1 108 110
M  V30 121 1 109 111
M  V30 122 2 113 107
M  V30 123 1 114 107
M  V30 124 1 115 125
M  V30 125 2 115 122
M  V30 126 1 116 115
M  V30 127 2 117 116
M  V30 128 1 117 119
M  V30 129 1 118 116
M  V30 130 2 119 121
M  V30 131 1 120 117
M  V30 132 1 121 122
M  V30 133 1 121 123
M  V30 134 1 122 124
M  V30 135 2 126 120
M  V30 136 1 127 120
M  V30 137 1 128 126
M  V30 138 1 129 139
M  V30 139 2 129 136
M  V30 140 1 130 129
M  V30 141 2 131 130
M  V30 142 1 131 133
M  V30 143 1 132 130
M  V30 144 2 133 135
M  V30 145 1 134 131
M  V30 146 1 135 136
M  V30 147 1 135 137
M  V30 148 1 136 138
M  V30 149 2 140 134
M  V30 150 1 141 134
M  V30 151 1 142 140
M  V30 152 9 113 101
M  V30 153 9 106 101
M  V30 154 9 126 101
M  V30 155 9 119 101
M  V30 156 9 140 101
M  V30 157 9 133 101
M  V30 158 1 144 154
M  V30 159 2 144 151
M  V30 160 1 145 144
M  V30 161 2 146 145
M  V30 162 1 146 148
M  V30 163 1 147 145
M  V30 164 2 148 150
M  V30 165 1 149 146
M  V30 166 1 150 151
M  V30 167 1 150 152
M  V30 168 1 151 153
M  V30 169 2 155 149
M  V30 170 1 156 149
M  V30 171 1 157 167
M  V30 172 2 157 164
M  V30 173 1 158 157
M  V30 174 2 159 158
M  V30 175 1 159 161
M  V30 176 1 160 158
M  V30 177 2 161 163
M  V30 178 1 162 159
M  V30 179 1 163 164
M  V30 180 1 163 165
M  V30 181 1 164 166
M  V30 182 2 168 162
M  V30 183 1 169 162
M  V30 184 1 170 168
M  V30 185 1 171 181
M  V30 186 2 171 178
M  V30 187 1 172 171
M  V30 188 2 173 172
M  V30 189 1 173 175
M  V30 190 1 174 172
M  V30 191 2 175 177
M  V30 192 1 176 173
M  V30 193 1 177 178
M  V30 194 1 177 179
M  V30 195 1 178 180
M  V30 196 2 182 176
M  V30 197 1 183 176
M  V30 198 1 184 182
M  V30 199 9 155 143
M  V30 200 9 148 143
M  V30 201 9 182 143
M  V30 202 9 175 143
M  V30 203 9 168 143
M  V30 204 9 161 143
M  V30 205 1 186 196
M  V30 206 2 186 193
M  V30 207 1 187 186
M  V30 208 2 188 187
M  V30 209 1 188 190
M  V30 210 1 189 187
M  V30 211 2 190 192
M  V30 212 1 191 188
M  V30 213 1 192 193
M  V30 214 1 192 194
M  V30 215 1 193 195
M  V30 216 2 197 191
M  V30 217 1 198 191
M  V30 218 1 199 209
M  V30 219 2 199 206
M  V30 220 1 200 199
M  V30 221 2 201 200
M  V30 222 1 201 203
M  V30 223 1 202 200
M  V30 224 2 203 205
M  V30 225 1 204 201
M  V30 226 1 205 206
M  V30 227 1 205 207
M  V30 228 1 206 208
M  V30 229 2 210 204
M  V30 230 1 211 204
M  V30 231 1 212 210
M  V30 232 1 213 223
M  V30 233 2 213 220
M  V30 234 1 214 213
M  V30 235 2 215 214
M  V30 236 1 215 217
M  V30 237 1 216 214
M  V30 238 2 217 219
M  V30 239 1 218 215
M  V30 240 1 219 220
M  V30 241 1 219 221
M  V30 242 1 220 222
M  V30 243 2 224 218
M  V30 244 1 225 218
M  V30 245 1 226 224
M  V30 246 9 197 185
M  V30 247 9 190 185
M  V30 248 9 224 185
M  V30 249 9 217 185
M  V30 250 9 210 185
M  V30 251 9 203 185
M  V30 252 1 30 71
M  V30 253 1 11 155
M  V30 254 1 1 113
M  V30 255 1 22 197
M  V30 END BOND
M  V30 END CTAB
M  END

$$$$
