
     RDKit          3D

  0  0  0  0  0  0  0  0  0  0999 V3000
M  V30 BEGIN CTAB
M  V30 COUNTS 220 248 0 0 0
M  V30 BEGIN ATOM
M  V30 1 C 4.9277 2.8286 -0.3414 0
M  V30 2 C 5.3991 1.7199 -1.0610 0
M  V30 3 C 4.7034 0.5327 -1.0840 0
M  V30 4 C 3.4961 0.3820 -0.3875 0
M  V30 5 N 2.8159 -0.8363 -0.4023 0
M  V30 6 C 3.5705 -2.0249 -0.4007 0
M  V30 7 C 4.7273 -2.1267 0.3808 0
M  V30 8 C 5.4953 -3.2724 0.3741 0
M  V30 9 C 5.1340 -4.3779 -0.4005 0
M  V30 10 C 3.9752 -4.2744 -1.1817 0
M  V30 11 C 3.2117 -3.1239 -1.1842 0
M  V30 12 C 1.4086 -0.8669 -0.4257 0
M  V30 13 C 0.6813 -1.8778 0.2076 0
M  V30 14 C -0.7018 -1.8687 0.2135 0
M  V30 15 C -1.4205 -0.8470 -0.4117 0
M  V30 16 N -2.8276 -0.7949 -0.3747 0
M  V30 17 C -3.6004 -1.9705 -0.3975 0
M  V30 18 C -3.2555 -3.0600 -1.2006 0
M  V30 19 C -4.0346 -4.1998 -1.2203 0
M  V30 20 C -5.1957 -4.3020 -0.4423 0
M  V30 21 C -5.5437 -3.2054 0.3508 0
M  V30 22 C -4.7603 -2.0706 0.3796 0
M  V30 23 C -3.4840 0.4345 -0.3155 0
M  V30 24 C -4.6941 0.6317 -0.9955 0
M  V30 25 C -5.3688 1.8289 -0.9227 0
M  V30 26 C -4.8746 2.9011 -0.1634 0
M  V30 27 C -3.6513 2.7126 0.4894 0
M  V30 28 C -2.9735 1.5139 0.4177 0
M  V30 29 C -0.6924 0.1412 -1.0808 0
M  V30 30 C 0.6874 0.1307 -1.0890 0
M  V30 31 C 3.0135 1.4947 0.3143 0
M  V30 32 C 3.7102 2.6846 0.3327 0
M  V30 33 H 6.2979 1.8086 -1.6523 0
M  V30 34 H 5.0842 -0.2940 -1.6640 0
M  V30 35 H 5.0158 -1.2977 1.0097 0
M  V30 36 H 6.3661 -3.3390 1.0070 0
M  V30 37 H 3.6947 -5.0879 -1.8338 0
M  V30 38 H 2.3364 -3.0665 -1.8134 0
M  V30 39 H 1.2042 -2.6695 0.7221 0
M  V30 40 H -1.2313 -2.6539 0.7314 0
M  V30 41 H -2.3784 -3.0032 -1.8273 0
M  V30 42 H -3.7640 -5.0046 -1.8872 0
M  V30 43 H -6.4167 -3.2714 0.9807 0
M  V30 44 H -5.0388 -1.2496 1.0234 0
M  V30 45 H -5.0940 -0.1664 -1.6021 0
M  V30 46 H -6.2695 1.9543 -1.5043 0
M  V30 47 H -3.2627 3.5055 1.1085 0
M  V30 48 H -2.0483 1.3903 0.9606 0
M  V30 49 H -1.2188 0.9165 -1.6174 0
M  V30 50 H 1.2184 0.8970 -1.6337 0
M  V30 51 H 2.0940 1.4058 0.8734 0
M  V30 52 H 3.3414 3.5068 0.9256 0
M  V30 53 Zn 5.0573 6.1250 -0.4824 0 CHG=2
M  V30 54 C 9.8538 6.3133 -0.1835 0
M  V30 55 C 9.1146 5.1398 -0.2051 0
M  V30 56 C 7.7208 5.2105 -0.2532 0
M  V30 57 H 9.6087 4.1810 -0.1880 0
M  V30 58 N 7.0755 6.3899 -0.2791 0
M  V30 59 C 6.9152 4.0093 -0.2630 0
M  V30 60 C 7.7873 7.5087 -0.2469 0
M  V30 61 C 9.1755 7.5238 -0.1988 0
M  V30 62 H 7.2298 8.4346 -0.2551 0
M  V30 63 H 9.7079 8.4612 -0.1751 0
M  V30 64 H 10.9321 6.2868 -0.1529 0
M  V30 65 N 5.6299 4.0341 -0.2871 0
M  V30 66 H 7.4647 3.0698 -0.2185 0
M  V30 67 C 3.7536 6.7149 4.2457 0
M  V30 68 C 2.8625 6.4507 3.2137 0
M  V30 69 C 3.3524 6.3107 1.9174 0
M  V30 70 H 1.8058 6.3547 3.4110 0
M  V30 71 N 4.6586 6.4163 1.6295 0
M  V30 72 C 2.4695 6.0387 0.7929 0
M  V30 73 C 5.5023 6.6736 2.6132 0
M  V30 74 C 5.0992 6.8328 3.9383 0
M  V30 75 H 6.5453 6.7635 2.3458 0
M  V30 76 H 5.8265 7.0470 4.7052 0
M  V30 77 H 3.4061 6.8298 5.2609 0
M  V30 78 N 2.9499 5.8539 -0.3632 0
M  V30 79 H 1.4007 5.9991 1.0169 0
M  V30 80 H 2.2912 5.6650 -1.1110 0
M  V30 81 C 4.3029 10.7218 -2.1545 0
M  V30 82 C 4.5744 9.6199 -2.9565 0
M  V30 83 C 4.7462 8.3749 -2.3550 0
M  V30 84 H 4.6550 9.7252 -4.0275 0
M  V30 85 N 4.6596 8.1977 -1.0255 0
M  V30 86 C 5.0329 7.1879 -3.1489 0
M  V30 87 C 4.4066 9.2533 -0.2687 0
M  V30 88 C 4.2183 10.5332 -0.7839 0
M  V30 89 H 4.3566 9.0805 0.7978 0
M  V30 90 H 4.0202 11.3606 -0.1210 0
M  V30 91 H 4.1683 11.7002 -2.5898 0
M  V30 92 N 5.1282 6.0549 -2.5842 0
M  V30 93 H 5.1513 7.3379 -4.2216 0
M  V30 94 H 5.3373 5.2788 -3.2058 0
M  V30 95 Zn 8.1301 -5.8752 -0.4783 0 CHG=2
M  V30 96 C 6.2025 -10.3184 -0.4532 0
M  V30 97 C 5.4536 -9.1502 -0.4550 0
M  V30 98 C 6.1106 -7.9192 -0.4267 0
M  V30 99 H 4.3757 -9.1899 -0.4800 0
M  V30 100 N 7.4508 -7.8334 -0.3981 0
M  V30 101 C 5.3602 -6.6799 -0.4129 0
M  V30 102 C 8.1612 -8.9518 -0.3884 0
M  V30 103 C 7.5849 -10.2172 -0.4142 0
M  V30 104 H 9.2355 -8.8403 -0.3532 0
M  V30 105 H 8.2075 -11.0976 -0.4034 0
M  V30 106 H 5.7206 -11.2836 -0.4787 0
M  V30 107 N 5.9241 -5.5308 -0.3778 0
M  V30 108 H 4.2744 -6.7842 -0.4058 0
M  V30 109 C 9.2271 -5.2656 4.2806 0
M  V30 110 C 9.4200 -4.3020 3.2984 0
M  V30 111 C 9.0332 -4.5865 1.9910 0
M  V30 112 H 9.8664 -3.3498 3.5408 0
M  V30 113 N 8.4782 -5.7596 1.6435 0
M  V30 114 C 9.2147 -3.6192 0.9176 0
M  V30 115 C 8.3011 -6.6740 2.5820 0
M  V30 116 C 8.6574 -6.4743 3.9141 0
M  V30 117 H 7.8620 -7.6107 2.2693 0
M  V30 118 H 8.4964 -7.2549 4.6406 0
M  V30 119 H 9.5202 -5.0776 5.3021 0
M  V30 120 N 8.7798 -3.8788 -0.2447 0
M  V30 121 H 9.7255 -2.6922 1.1800 0
M  V30 122 H 8.9478 -3.1718 -0.9533 0
M  V30 123 C 12.6958 -6.8585 -2.0856 0
M  V30 124 C 11.5997 -6.6181 -2.9056 0
M  V30 125 C 10.3585 -6.3814 -2.3193 0
M  V30 126 H 11.7065 -6.6110 -3.9796 0
M  V30 127 N 10.1767 -6.3809 -0.9866 0
M  V30 128 C 9.1822 -6.1154 -3.1324 0
M  V30 129 C 11.2234 -6.6228 -0.2138 0
M  V30 130 C 12.5011 -6.8641 -0.7135 0
M  V30 131 H 11.0450 -6.6313 0.8529 0
M  V30 132 H 13.3198 -7.0550 -0.0377 0
M  V30 133 H 13.6719 -7.0397 -2.5091 0
M  V30 134 N 8.0784 -5.8149 -2.5795 0
M  V30 135 H 9.3128 -6.1859 -4.2118 0
M  V30 136 H 7.3068 -5.6511 -3.2192 0
M  V30 137 Zn -8.2107 -5.7622 -0.5232 0 CHG=2
M  V30 138 C -6.3359 -10.2275 -0.5867 0
M  V30 139 C -5.5734 -9.0681 -0.5790 0
M  V30 140 C -6.2157 -7.8302 -0.5228 0
M  V30 141 H -4.4965 -9.1198 -0.6180 0
M  V30 142 N -7.5542 -7.7294 -0.4766 0
M  V30 143 C -5.4505 -6.6003 -0.4960 0
M  V30 144 C -8.2775 -8.8396 -0.4759 0
M  V30 145 C -7.7164 -10.1110 -0.5289 0
M  V30 146 H -9.3499 -8.7164 -0.4256 0
M  V30 147 H -8.3491 -10.9842 -0.5242 0
M  V30 148 H -5.8656 -11.1976 -0.6337 0
M  V30 149 N -6.0001 -5.4451 -0.4372 0
M  V30 150 H -4.3661 -6.7177 -0.4989 0
M  V30 151 C -9.2467 -5.1960 4.2544 0
M  V30 152 C -9.4460 -4.2210 3.2847 0
M  V30 153 C -9.0761 -4.4936 1.9700 0
M  V30 154 H -9.8846 -3.2692 3.5424 0
M  V30 155 N -8.5317 -5.6659 1.6037 0
M  V30 156 C -9.2640 -3.5137 0.9091 0
M  V30 157 C -8.3484 -6.5912 2.5302 0
M  V30 158 C -8.6877 -6.4037 3.8685 0
M  V30 159 H -7.9182 -7.5268 2.2022 0
M  V30 160 H -8.5221 -7.1927 4.5848 0
M  V30 161 H -9.5267 -5.0173 5.2812 0
M  V30 162 N -8.8423 -3.7629 -0.2603 0
M  V30 163 H -9.7674 -2.5871 1.1867 0
M  V30 164 H -9.0138 -3.0475 -0.9596 0
M  V30 165 C -12.8082 -6.6807 -2.0783 0
M  V30 166 C -11.7213 -6.4398 -2.9104 0
M  V30 167 C -10.4698 -6.2229 -2.3384 0
M  V30 168 H -11.8430 -6.4173 -3.9825 0
M  V30 169 N -10.2696 -6.2419 -1.0085 0
M  V30 170 C -9.3022 -5.9576 -3.1643 0
M  V30 171 C -11.3079 -6.4842 -0.2243 0
M  V30 172 C -12.5946 -6.7067 -0.7093 0
M  V30 173 H -11.1147 -6.5088 0.8395 0
M  V30 174 H -13.4056 -6.8990 -0.0247 0
M  V30 175 H -13.7918 -6.8469 -2.4905 0
M  V30 176 N -8.1877 -5.6761 -2.6230 0
M  V30 177 H -9.4485 -6.0120 -4.2425 0
M  V30 178 H -7.4234 -5.5113 -3.2714 0
M  V30 179 Zn -4.9614 6.2080 -0.1082 0 CHG=2
M  V30 180 C -9.7591 6.4331 0.1412 0
M  V30 181 C -9.0320 5.2547 0.0626 0
M  V30 182 C -7.6368 5.3123 0.0380 0
M  V30 183 H -9.5362 4.3021 0.0168 0
M  V30 184 N -6.9789 6.4836 0.0895 0
M  V30 185 C -6.8452 4.1040 -0.0307 0
M  V30 186 C -7.6796 7.6066 0.1771 0
M  V30 187 C -9.0680 7.6347 0.2062 0
M  V30 188 H -7.1125 8.5251 0.2317 0
M  V30 189 H -9.5908 8.5751 0.2772 0
M  V30 190 H -10.8380 6.4170 0.1545 0
M  V30 191 N -5.5592 4.1124 -0.0492 0
M  V30 192 H -7.4073 3.1710 -0.0381 0
M  V30 193 C -3.6991 6.5005 4.6581 0
M  V30 194 C -2.8006 6.2845 3.6210 0
M  V30 195 C -3.2788 6.2312 2.3139 0
M  V30 196 H -1.7481 6.1588 3.8237 0
M  V30 197 N -4.5804 6.3729 2.0194 0
M  V30 198 C -2.3875 6.0170 1.1843 0
M  V30 199 C -5.4306 6.5840 3.0083 0
M  V30 200 C -5.0391 6.6583 4.3446 0
M  V30 201 H -6.4693 6.7053 2.7367 0
M  V30 202 H -5.7715 6.8385 5.1154 0
M  V30 203 H -3.3605 6.5486 5.6816 0
M  V30 204 N -2.8571 5.9148 0.0131 0
M  V30 205 H -1.3227 5.9443 1.4184 0
M  V30 206 H -2.1933 5.7626 -0.7384 0
M  V30 207 C -4.1891 10.8955 -1.5031 0
M  V30 208 C -4.4656 9.8449 -2.3696 0
M  V30 209 C -4.6372 8.5659 -1.8444 0
M  V30 210 H -4.5504 10.0154 -3.4319 0
M  V30 211 N -4.5463 8.3079 -0.5285 0
M  V30 212 C -4.9277 7.4295 -2.7080 0
M  V30 213 C -4.2882 9.3150 0.2901 0
M  V30 214 C -4.0991 10.6236 -0.1469 0
M  V30 215 H -4.2344 9.0774 1.3438 0
M  V30 216 H -3.8964 11.4087 0.5642 0
M  V30 217 H -4.0548 11.8986 -1.8784 0
M  V30 218 N -5.0217 6.2642 -2.2128 0
M  V30 219 H -5.0498 7.6443 -3.7692 0
M  V30 220 H -5.2339 5.5273 -2.8794 0
M  V30 END ATOM
M  V30 BEGIN BOND
M  V30 1 2 1 2
M  V30 2 1 2 3
M  V30 3 2 3 4
M  V30 4 1 4 5
M  V30 5 1 5 6
M  V30 6 2 6 7
M  V30 7 1 7 8
M  V30 8 2 8 9
M  V30 9 1 9 10
M  V30 10 2 10 11
M  V30 11 1 5 12
M  V30 12 2 12 13
M  V30 13 1 13 14
M  V30 14 2 14 15
M  V30 15 1 15 16
M  V30 16 1 16 17
M  V30 17 2 17 18
M  V30 18 1 18 19
M  V30 19 2 19 20
M  V30 20 1 20 21
M  V30 21 2 21 22
M  V30 22 1 16 23
M  V30 23 2 23 24
M  V30 24 1 24 25
M  V30 25 2 25 26
M  V30 26 1 26 27
M  V30 27 2 27 28
M  V30 28 1 15 29
M  V30 29 2 29 30
M  V30 30 1 4 31
M  V30 31 2 31 32
M  V30 32 1 32 1
M  V30 33 1 11 6
M  V30 34 1 30 12
M  V30 35 1 22 17
M  V30 36 1 28 23
M  V30 37 1 2 33
M  V30 38 1 3 34
M  V30 39 1 7 35
M  V30 40 1 8 36
M  V30 41 1 10 37
M  V30 42 1 11 38
M  V30 43 1 13 39
M  V30 44 1 14 40
M  V30 45 1 18 41
M  V30 46 1 19 42
M  V30 47 1 21 43
M  V30 48 1 22 44
M  V30 49 1 24 45
M  V30 50 1 25 46
M  V30 51 1 27 47
M  V30 52 1 28 48
M  V30 53 1 29 49
M  V30 54 1 30 50
M  V30 55 1 31 51
M  V30 56 1 32 52
M  V30 57 1 54 64
M  V30 58 2 54 61
M  V30 59 1 55 54
M  V30 60 2 56 55
M  V30 61 1 56 58
M  V30 62 1 57 55
M  V30 63 2 58 60
M  V30 64 1 59 56
M  V30 65 1 60 61
M  V30 66 1 60 62
M  V30 67 1 61 63
M  V30 68 2 65 59
M  V30 69 1 66 59
M  V30 70 1 67 77
M  V30 71 2 67 74
M  V30 72 1 68 67
M  V30 73 2 69 68
M  V30 74 1 69 71
M  V30 75 1 70 68
M  V30 76 2 71 73
M  V30 77 1 72 69
M  V30 78 1 73 74
M  V30 79 1 73 75
M  V30 80 1 74 76
M  V30 81 2 78 72
M  V30 82 1 79 72
M  V30 83 1 80 78
M  V30 84 1 81 91
M  V30 85 2 81 88
M  V30 86 1 82 81
M  V30 87 2 83 82
M  V30 88 1 83 85
M  V30 89 1 84 82
M  V30 90 2 85 87
M  V30 91 1 86 83
M  V30 92 1 87 88
M  V30 93 1 87 89
M  V30 94 1 88 90
M  V30 95 2 92 86
M  V30 96 1 93 86
M  V30 97 1 94 92
M  V30 98 9 65 53
M  V30 99 9 58 53
M  V30 100 9 78 53
M  V30 101 9 71 53
M  V30 102 9 92 53
M  V30 103 9 85 53
M  V30 104 1 96 106
M  V30 105 2 96 103
M  V30 106 1 97 96
M  V30 107 2 98 97
M  V30 108 1 98 100
M  V30 109 1 99 97
M  V30 110 2 100 102
M  V30 111 1 101 98
M  V30 112 1 102 103
M  V30 113 1 102 104
M  V30 114 1 103 105
M  V30 115 2 107 101
M  V30 116 1 108 101
M  V30 117 1 109 119
M  V30 118 2 109 116
M  V30 119 1 110 109
M  V30 120 2 111 110
M  V30 121 1 111 113
M  V30 122 1 112 110
M  V30 123 2 113 115
M  V30 124 1 114 111
M  V30 125 1 115 116
M  V30 126 1 115 117
M  V30 127 1 116 118
M  V30 128 2 120 114
M  V30 129 1 121 114
M  V30 130 1 122 120
M  V30 131 1 123 133
M  V30 132 2 123 130
M  V30 133 1 124 123
M  V30 134 2 125 124
M  V30 135 1 125 127
M  V30 136 1 126 124
M  V30 137 2 127 129
M  V30 138 1 128 125
M  V30 139 1 129 130
M  V30 140 1 129 131
M  V30 141 1 130 132
M  V30 142 2 134 128
M  V30 143 1 135 128
M  V30 144 1 136 134
M  V30 145 9 107 95
M  V30 146 9 100 95
M  V30 147 9 120 95
M  V30 148 9 113 95
M  V30 149 9 134 95
M  V30 150 9 127 95
M  V30 151 1 138 148
M  V30 152 2 138 145
M  V30 153 1 139 138
M  V30 154 2 140 139
M  V30 155 1 140 142
M  V30 156 1 141 139
M  V30 157 2 142 144
M  V30 158 1 143 140
M  V30 159 1 144 145
M  V30 160 1 144 146
M  V30 161 1 145 147
M  V30 162 2 149 143
M  V30 163 1 150 143
M  V30 164 1 151 161
M  V30 165 2 151 158
M  V30 166 1 152 151
M  V30 167 2 153 152
M  V30 168 1 153 155
M  V30 169 1 154 152
M  V30 170 2 155 157
M  V30 171 1 156 153
M  V30 172 1 157 158
M  V30 173 1 157 159
M  V30 174 1 158 160
M  V30 175 2 162 156
M  V30 176 1 163 156
M  V30 177 1 164 162
M  V30 178 1 165 175
M  V30 179 2 165 172
M  V30 180 1 166 165
M  V30 181 2 167 166
M  V30 182 1 167 169
M  V30 183 1 168 166
M  V30 184 2 169 171
M  V30 185 1 170 167
M  V30 186 1 171 172
M  V30 187 1 171 173
M  V30 188 1 172 174
M  V30 189 2 176 170
M  V30 190 1 177 170
M  V30 191 1 178 176
M  V30 192 9 149 137
M  V30 193 9 142 137
M  V30 194 9 176 137
M  V30 195 9 169 137
M  V30 196 9 162 137
M  V30 197 9 155 137
M  V30 198 1 180 190
M  V30 199 2 180 187
M  V30 200 1 181 180
M  V30 201 2 182 181
M  V30 202 1 182 184
M  V30 203 1 183 181
M  V30 204 2 184 186
M  V30 205 1 185 182
M  V30 206 1 186 187
M  V30 207 1 186 188
M  V30 208 1 187 189
M  V30 209 2 191 185
M  V30 210 1 192 185
M  V30 211 1 193 203
M  V30 212 2 193 200
M  V30 213 1 194 193
M  V30 214 2 195 194
M  V30 215 1 195 197
M  V30 216 1 196 194
M  V30 217 2 197 199
M  V30 218 1 198 195
M  V30 219 1 199 200
M  V30 220 1 199 201
M  V30 221 1 200 202
M  V30 222 2 204 198
M  V30 223 1 205 198
M  V30 224 1 206 204
M  V30 225 1 207 217
M  V30 226 2 207 214
M  V30 227 1 208 207
M  V30 228 2 209 208
M  V30 229 1 209 211
M  V30 230 1 210 208
M  V30 231 2 211 213
M  V30 232 1 212 209
M  V30 233 1 213 214
M  V30 234 1 213 215
M  V30 235 1 214 216
M  V30 236 2 218 212
M  V30 237 1 219 212
M  V30 238 1 220 218
M  V30 239 9 191 179
M  V30 240 9 184 179
M  V30 241 9 218 179
M  V30 242 9 211 179
M  V30 243 9 204 179
M  V30 244 9 197 179
M  V30 245 1 1 65
M  V30 246 1 9 107
M  V30 247 1 20 149
M  V30 248 1 26 191
M  V30 END BOND
M  V30 END CTAB
M  END

$$$$
