
     RDKit          3D

  0  0  0  0  0  0  0  0  0  0999 V3000
M  V30 BEGIN CTAB
M  V30 COUNTS 236 266 0 0 0
M  V30 BEGIN ATOM
M  V30 1 C 7.9211 -4.2841 -0.3517 0
M  V30 2 C 6.7451 -4.2105 -1.1014 0
M  V30 3 C 5.9887 -3.0560 -1.1127 0
M  V30 4 C 6.3573 -1.9404 -0.3568 0
M  V30 5 C 5.5672 -0.6954 -0.3902 0
M  V30 6 C 6.2120 0.5393 -0.4199 0
M  V30 7 C 5.4887 1.7295 -0.4636 0
M  V30 8 C 6.1956 3.0250 -0.4971 0
M  V30 9 C 5.7273 4.1256 0.2221 0
M  V30 10 C 6.3790 5.3430 0.1796 0
M  V30 11 C 7.5454 5.4997 -0.5731 0
M  V30 12 C 8.0410 4.3929 -1.2654 0
M  V30 13 C 7.3689 3.1880 -1.2393 0
M  V30 14 C 4.0950 1.6686 -0.4715 0
M  V30 15 C 3.4245 0.4470 -0.4371 0
M  V30 16 C 1.9473 0.3856 -0.4355 0
M  V30 17 C 1.2696 -0.5018 0.4000 0
M  V30 18 C -0.1112 -0.5718 0.4027 0
M  V30 19 C -0.8755 0.2447 -0.4298 0
M  V30 20 C -2.3526 0.1770 -0.4177 0
M  V30 21 C -3.1128 1.3456 -0.4415 0
M  V30 22 C -4.5058 1.3019 -0.4213 0
M  V30 23 C -5.3175 2.5321 -0.4504 0
M  V30 24 C -6.5051 2.5860 -1.1859 0
M  V30 25 C -7.2876 3.7215 -1.2039 0
M  V30 26 C -6.8919 4.8665 -0.5099 0
M  V30 27 C -5.7101 4.8191 0.2338 0
M  V30 28 C -4.9462 3.6688 0.2681 0
M  V30 29 C -5.1371 0.0618 -0.3699 0
M  V30 30 C -4.4037 -1.1212 -0.3487 0
M  V30 31 C -5.1160 -2.4120 -0.3088 0
M  V30 32 C -4.7116 -3.4903 -1.0957 0
M  V30 33 C -5.3938 -4.6905 -1.0676 0
M  V30 34 C -6.5212 -4.8540 -0.2573 0
M  V30 35 C -6.9424 -3.7727 0.5181 0
M  V30 36 C -6.2446 -2.5824 0.4979 0
M  V30 37 C -3.0117 -1.0513 -0.3759 0
M  V30 38 C -0.1982 1.1327 -1.2648 0
M  V30 39 C 1.1832 1.2016 -1.2681 0
M  V30 40 C 4.1743 -0.7273 -0.4003 0
M  V30 41 C 7.5079 -2.0391 0.4275 0
M  V30 42 C 8.2829 -3.1817 0.4265 0
M  V30 43 H 6.4664 -5.0531 -1.7162 0
M  V30 44 H 5.1126 -3.0042 -1.7410 0
M  V30 45 H 7.2912 0.5723 -0.4135 0
M  V30 46 H 4.8460 4.0246 0.8367 0
M  V30 47 H 6.0051 6.1697 0.7655 0
M  V30 48 H 8.9324 4.5093 -1.8630 0
M  V30 49 H 7.7455 2.3645 -1.8266 0
M  V30 50 H 3.5229 2.5835 -0.5101 0
M  V30 51 H 1.8308 -1.1284 1.0776 0
M  V30 52 H -0.6045 -1.2524 1.0810 0
M  V30 53 H -2.6105 2.3004 -0.4828 0
M  V30 54 H -6.8029 1.7323 -1.7754 0
M  V30 55 H -8.1891 3.7573 -1.7970 0
M  V30 56 H -5.4114 5.6759 0.8191 0
M  V30 57 H -4.0531 3.6484 0.8735 0
M  V30 58 H -6.2159 0.0148 -0.3499 0
M  V30 59 H -3.8627 -3.3809 -1.7529 0
M  V30 60 H -5.0792 -5.4974 -1.7125 0
M  V30 61 H -7.7916 -3.8964 1.1732 0
M  V30 62 H -6.5632 -1.7746 1.1392 0
M  V30 63 H -2.4330 -1.9629 -0.3581 0
M  V30 64 H -0.7585 1.7609 -1.9409 0
M  V30 65 H 1.6765 1.8827 -1.9454 0
M  V30 66 H 3.6640 -1.6788 -0.3751 0
M  V30 67 H 7.7940 -1.2115 1.0583 0
M  V30 68 H 9.1552 -3.2374 1.0608 0
M  V30 69 Zn -9.8201 6.2670 -0.3904 0 CHG=2
M  V30 70 C -8.1112 10.7375 -1.1803 0
M  V30 71 C -7.3163 9.6069 -1.0625 0
M  V30 72 C -7.9221 8.3720 -0.8320 0
M  V30 73 H -6.2434 9.6750 -1.1514 0
M  V30 74 N -9.2543 8.2454 -0.7178 0
M  V30 75 C -7.1324 7.1613 -0.7252 0
M  V30 76 C -10.0086 9.3287 -0.8304 0
M  V30 77 C -9.4857 10.5954 -1.0620 0
M  V30 78 H -11.0750 9.1861 -0.7274 0
M  V30 79 H -10.1430 11.4457 -1.1465 0
M  V30 80 H -7.6698 11.7053 -1.3605 0
M  V30 81 N -7.6832 6.0155 -0.5921 0
M  V30 82 H -6.0513 7.2740 -0.8057 0
M  V30 83 C -9.5332 6.4139 4.5450 0
M  V30 84 C -9.7291 5.2594 3.7985 0
M  V30 85 C -9.7965 5.3576 2.4106 0
M  V30 86 H -9.8348 4.3002 4.2814 0
M  V30 87 N -9.6731 6.5279 1.7654 0
M  V30 88 C -10.0253 4.1858 1.5796 0
M  V30 89 C -9.4881 7.6234 2.4816 0
M  V30 90 C -9.4124 7.6192 3.8725 0
M  V30 91 H -9.4024 8.5518 1.9348 0
M  V30 92 H -9.2676 8.5434 4.4090 0
M  V30 93 H -9.4826 6.3724 5.6220 0
M  V30 94 N -10.0913 4.3030 0.3200 0
M  V30 95 H -10.1402 3.2358 2.1030 0
M  V30 96 H -10.2647 3.4467 -0.1960 0
M  V30 97 C -14.6614 6.8698 -1.0380 0
M  V30 98 C -13.7593 6.5621 -2.0487 0
M  V30 99 C -12.4111 6.4213 -1.7283 0
M  V30 100 H -14.0927 6.4326 -3.0669 0
M  V30 101 N -11.9466 6.5776 -0.4764 0
M  V30 102 C -11.4247 6.0941 -2.7467 0
M  V30 103 C -12.8111 6.8747 0.4796 0
M  V30 104 C -14.1763 7.0283 0.2503 0
M  V30 105 H -12.4066 7.0023 1.4742 0
M  V30 106 H -14.8379 7.2716 1.0665 0
M  V30 107 H -15.7124 6.9854 -1.2541 0
M  V30 108 N -10.2148 5.8977 -2.4171 0
M  V30 109 H -11.7867 6.0272 -3.7726 0
M  V30 110 H -9.5858 5.6869 -3.1862 0
M  V30 111 Zn 10.3361 7.1496 -0.4480 0 CHG=2
M  V30 112 C 8.2469 11.4577 -1.2618 0
M  V30 113 C 7.5520 10.2630 -1.1410 0
M  V30 114 C 8.2611 9.0856 -0.9022 0
M  V30 115 H 6.4776 10.2390 -1.2346 0
M  V30 116 N 9.5985 9.0764 -0.7817 0
M  V30 117 C 7.5793 7.8099 -0.7930 0
M  V30 118 C 10.2569 10.2203 -0.8962 0
M  V30 119 C 9.6279 11.4361 -1.1370 0
M  V30 120 H 11.3311 10.1711 -0.7871 0
M  V30 121 H 10.2096 12.3398 -1.2235 0
M  V30 122 H 7.7245 12.3830 -1.4491 0
M  V30 123 N 8.2276 6.7167 -0.6601 0
M  V30 124 H 6.4920 7.8296 -0.8717 0
M  V30 125 C 10.0132 7.2698 4.4828 0
M  V30 126 C 10.3326 6.1421 3.7382 0
M  V30 127 C 10.3914 6.2452 2.3502 0
M  V30 128 H 10.5398 5.2002 4.2220 0
M  V30 129 N 10.1456 7.3953 1.7038 0
M  V30 130 C 10.7436 5.1017 1.5213 0
M  V30 131 C 9.8437 8.4658 2.4185 0
M  V30 132 C 9.7655 8.4548 3.8089 0
M  V30 133 H 9.6613 9.3795 1.8704 0
M  V30 134 H 9.5222 9.3589 4.3440 0
M  V30 135 H 9.9657 7.2241 5.5598 0
M  V30 136 N 10.7868 5.2213 0.2609 0
M  V30 137 H 10.9666 4.1723 2.0462 0
M  V30 138 H 11.0526 4.3869 -0.2522 0
M  V30 139 C 15.1127 8.1379 -1.0598 0
M  V30 140 C 14.2492 7.7426 -2.0737 0
M  V30 141 C 12.9116 7.5070 -1.7653 0
M  V30 142 H 14.6043 7.6168 -3.0849 0
M  V30 143 N 12.4210 7.6527 -0.5221 0
M  V30 144 C 11.9656 7.0879 -2.7882 0
M  V30 145 C 13.2482 8.0350 0.4367 0
M  V30 146 C 14.6005 8.2871 0.2191 0
M  V30 147 H 12.8227 8.1525 1.4237 0
M  V30 148 H 15.2314 8.5966 1.0372 0
M  V30 149 H 16.1550 8.3261 -1.2664 0
M  V30 150 N 10.7680 6.8125 -2.4700 0
M  V30 151 H 12.3456 7.0263 -3.8078 0
M  V30 152 H 10.1671 6.5407 -3.2425 0
M  V30 153 Zn 8.1158 -7.5120 -0.2573 0 CHG=2
M  V30 154 C 12.9402 -7.6144 -0.7638 0
M  V30 155 C 12.1854 -6.4533 -0.6817 0
M  V30 156 C 10.8017 -6.5511 -0.5331 0
M  V30 157 H 12.6579 -5.4849 -0.7355 0
M  V30 158 N 10.1782 -7.7389 -0.4637 0
M  V30 159 C 9.9701 -5.3654 -0.4644 0
M  V30 160 C 10.9045 -8.8445 -0.5416 0
M  V30 161 C 12.2860 -8.8354 -0.6926 0
M  V30 162 H 10.3667 -9.7798 -0.4760 0
M  V30 163 H 12.8309 -9.7639 -0.7519 0
M  V30 164 H 14.0119 -7.5686 -0.8806 0
M  V30 165 N 8.6953 -5.4466 -0.4072 0
M  V30 166 H 10.4850 -4.4055 -0.5042 0
M  V30 167 C 8.0466 -7.3753 4.6843 0
M  V30 168 C 6.9522 -7.1130 3.8707 0
M  V30 169 C 7.1059 -7.1909 2.4884 0
M  V30 170 H 5.9941 -6.8585 4.2969 0
M  V30 171 N 8.2762 -7.5055 1.9116 0
M  V30 172 C 5.9888 -6.9485 1.5881 0
M  V30 173 C 9.3144 -7.7541 2.6915 0
M  V30 174 C 9.2505 -7.7034 4.0821 0
M  V30 175 H 10.2409 -8.0127 2.1985 0
M  V30 176 H 10.1265 -7.9219 4.6721 0
M  V30 177 H 7.9589 -7.3291 5.7588 0
M  V30 178 N 6.1516 -7.0412 0.3352 0
M  V30 179 H 5.0352 -6.6982 2.0543 0
M  V30 180 H 5.3274 -6.8669 -0.2306 0
M  V30 181 C 6.9879 -12.2347 -1.0603 0
M  V30 182 C 7.0775 -11.2632 -2.0492 0
M  V30 183 C 7.4005 -9.9586 -1.6837 0
M  V30 184 H 6.9022 -11.5099 -3.0849 0
M  V30 185 N 7.6327 -9.6034 -0.4087 0
M  V30 186 C 7.5079 -8.9020 -2.6792 0
M  V30 187 C 7.5479 -10.5342 0.5269 0
M  V30 188 C 7.2272 -11.8613 0.2525 0
M  V30 189 H 7.7476 -10.2188 1.5416 0
M  V30 190 H 7.1736 -12.5816 1.0533 0
M  V30 191 H 6.7418 -13.2548 -1.3116 0
M  V30 192 N 7.7472 -7.7107 -2.3142 0
M  V30 193 H 7.3698 -9.1963 -3.7195 0
M  V30 194 H 7.8203 -7.0331 -3.0674 0
M  V30 195 Zn -9.3197 -6.5392 -0.4803 0 CHG=2
M  V30 196 C -7.1446 -10.8417 0.0624 0
M  V30 197 C -6.4783 -9.6262 0.0255 0
M  V30 198 C -7.2164 -8.4507 -0.1133 0
M  V30 199 H -5.4032 -9.5831 0.1037 0
M  V30 200 N -8.5557 -8.4605 -0.2086 0
M  V30 201 C -6.5599 -7.1593 -0.1462 0
M  V30 202 C -9.1875 -9.6246 -0.1704 0
M  V30 203 C -8.5281 -10.8406 -0.0377 0
M  V30 204 H -10.2652 -9.5913 -0.2460 0
M  V30 205 H -9.0888 -11.7612 -0.0140 0
M  V30 206 H -6.5993 -11.7667 0.1669 0
M  V30 207 N -7.2196 -6.0653 -0.2004 0
M  V30 208 H -5.4714 -7.1677 -0.0922 0
M  V30 209 C -10.8219 -5.5760 4.1090 0
M  V30 210 C -10.9651 -4.7084 3.0339 0
M  V30 211 C -10.4762 -5.0933 1.7878 0
M  V30 212 H -11.4490 -3.7516 3.1560 0
M  V30 213 N -9.8758 -6.2772 1.5861 0
M  V30 214 C -10.5846 -4.2199 0.6274 0
M  V30 215 C -9.7446 -7.1001 2.6121 0
M  V30 216 C -10.1975 -6.7939 3.8935 0
M  V30 217 H -9.2626 -8.0472 2.4146 0
M  V30 218 H -10.0656 -7.5002 4.6977 0
M  V30 219 H -11.1915 -5.3078 5.0867 0
M  V30 220 N -10.0751 -4.5720 -0.4774 0
M  V30 221 H -11.1075 -3.2741 0.7774 0
M  V30 222 H -10.1827 -3.9201 -1.2475 0
M  V30 223 C -13.6467 -7.9920 -2.3634 0
M  V30 224 C -12.5078 -7.7163 -3.1097 0
M  V30 225 C -11.3449 -7.3297 -2.4472 0
M  V30 226 H -12.5195 -7.7969 -4.1856 0
M  V30 227 N -11.2803 -7.2174 -1.1093 0
M  V30 228 C -10.1299 -7.0175 -3.1836 0
M  V30 229 C -12.3671 -7.4887 -0.4056 0
M  V30 230 C -13.5730 -7.8764 -0.9845 0
M  V30 231 H -12.2815 -7.3999 0.6688 0
M  V30 232 H -14.4295 -8.0848 -0.3630 0
M  V30 233 H -14.5637 -8.2909 -2.8475 0
M  V30 234 N -9.0983 -6.6065 -2.5682 0
M  V30 235 H -10.1694 -7.1522 -4.2643 0
M  V30 236 H -8.2954 -6.4094 -3.1576 0
M  V30 END ATOM
M  V30 BEGIN BOND
M  V30 1 2 1 2
M  V30 2 1 2 3
M  V30 3 2 3 4
M  V30 4 1 4 5
M  V30 5 2 5 6
M  V30 6 1 6 7
M  V30 7 1 7 8
M  V30 8 2 8 9
M  V30 9 1 9 10
M  V30 10 2 10 11
M  V30 11 1 11 12
M  V30 12 2 12 13
M  V30 13 2 7 14
M  V30 14 1 14 15
M  V30 15 1 15 16
M  V30 16 2 16 17
M  V30 17 1 17 18
M  V30 18 2 18 19
M  V30 19 1 19 20
M  V30 20 2 20 21
M  V30 21 1 21 22
M  V30 22 1 22 23
M  V30 23 2 23 24
M  V30 24 1 24 25
M  V30 25 2 25 26
M  V30 26 1 26 27
M  V30 27 2 27 28
M  V30 28 2 22 29
M  V30 29 1 29 30
M  V30 30 1 30 31
M  V30 31 2 31 32
M  V30 32 1 32 33
M  V30 33 2 33 34
M  V30 34 1 34 35
M  V30 35 2 35 36
M  V30 36 2 30 37
M  V30 37 1 19 38
M  V30 38 2 38 39
M  V30 39 2 15 40
M  V30 40 1 4 41
M  V30 41 2 41 42
M  V30 42 1 42 1
M  V30 43 1 40 5
M  V30 44 1 13 8
M  V30 45 1 39 16
M  V30 46 1 37 20
M  V30 47 1 28 23
M  V30 48 1 36 31
M  V30 49 1 2 43
M  V30 50 1 3 44
M  V30 51 1 6 45
M  V30 52 1 9 46
M  V30 53 1 10 47
M  V30 54 1 12 48
M  V30 55 1 13 49
M  V30 56 1 14 50
M  V30 57 1 17 51
M  V30 58 1 18 52
M  V30 59 1 21 53
M  V30 60 1 24 54
M  V30 61 1 25 55
M  V30 62 1 27 56
M  V30 63 1 28 57
M  V30 64 1 29 58
M  V30 65 1 32 59
M  V30 66 1 33 60
M  V30 67 1 35 61
M  V30 68 1 36 62
M  V30 69 1 37 63
M  V30 70 1 38 64
M  V30 71 1 39 65
M  V30 72 1 40 66
M  V30 73 1 41 67
M  V30 74 1 42 68
M  V30 75 1 70 80
M  V30 76 2 70 77
M  V30 77 1 71 70
M  V30 78 2 72 71
M  V30 79 1 72 74
M  V30 80 1 73 71
M  V30 81 2 74 76
M  V30 82 1 75 72
M  V30 83 1 76 77
M  V30 84 1 76 78
M  V30 85 1 77 79
M  V30 86 2 81 75
M  V30 87 1 82 75
M  V30 88 1 83 93
M  V30 89 2 83 90
M  V30 90 1 84 83
M  V30 91 2 85 84
M  V30 92 1 85 87
M  V30 93 1 86 84
M  V30 94 2 87 89
M  V30 95 1 88 85
M  V30 96 1 89 90
M  V30 97 1 89 91
M  V30 98 1 90 92
M  V30 99 2 94 88
M  V30 100 1 95 88
M  V30 101 1 96 94
M  V30 102 1 97 107
M  V30 103 2 97 104
M  V30 104 1 98 97
M  V30 105 2 99 98
M  V30 106 1 99 101
M  V30 107 1 100 98
M  V30 108 2 101 103
M  V30 109 1 102 99
M  V30 110 1 103 104
M  V30 111 1 103 105
M  V30 112 1 104 106
M  V30 113 2 108 102
M  V30 114 1 109 102
M  V30 115 1 110 108
M  V30 116 9 81 69
M  V30 117 9 74 69
M  V30 118 9 94 69
M  V30 119 9 87 69
M  V30 120 9 108 69
M  V30 121 9 101 69
M  V30 122 1 112 122
M  V30 123 2 112 119
M  V30 124 1 113 112
M  V30 125 2 114 113
M  V30 126 1 114 116
M  V30 127 1 115 113
M  V30 128 2 116 118
M  V30 129 1 117 114
M  V30 130 1 118 119
M  V30 131 1 118 120
M  V30 132 1 119 121
M  V30 133 2 123 117
M  V30 134 1 124 117
M  V30 135 1 125 135
M  V30 136 2 125 132
M  V30 137 1 126 125
M  V30 138 2 127 126
M  V30 139 1 127 129
M  V30 140 1 128 126
M  V30 141 2 129 131
M  V30 142 1 130 127
M  V30 143 1 131 132
M  V30 144 1 131 133
M  V30 145 1 132 134
M  V30 146 2 136 130
M  V30 147 1 137 130
M  V30 148 1 138 136
M  V30 149 1 139 149
M  V30 150 2 139 146
M  V30 151 1 140 139
M  V30 152 2 141 140
M  V30 153 1 141 143
M  V30 154 1 142 140
M  V30 155 2 143 145
M  V30 156 1 144 141
M  V30 157 1 145 146
M  V30 158 1 145 147
M  V30 159 1 146 148
M  V30 160 2 150 144
M  V30 161 1 151 144
M  V30 162 1 152 150
M  V30 163 9 123 111
M  V30 164 9 116 111
M  V30 165 9 150 111
M  V30 166 9 143 111
M  V30 167 9 136 111
M  V30 168 9 129 111
M  V30 169 1 154 164
M  V30 170 2 154 161
M  V30 171 1 155 154
M  V30 172 2 156 155
M  V30 173 1 156 158
M  V30 174 1 157 155
M  V30 175 2 158 160
M  V30 176 1 159 156
M  V30 177 1 160 161
M  V30 178 1 160 162
M  V30 179 1 161 163
M  V30 180 2 165 159
M  V30 181 1 166 159
M  V30 182 1 167 177
M  V30 183 2 167 174
M  V30 184 1 168 167
M  V30 185 2 169 168
M  V30 186 1 169 171
M  V30 187 1 170 168
M  V30 188 2 171 173
M  V30 189 1 172 169
M  V30 190 1 173 174
M  V30 191 1 173 175
M  V30 192 1 174 176
M  V30 193 2 178 172
M  V30 194 1 179 172
M  V30 195 1 180 178
M  V30 196 1 181 191
M  V30 197 2 181 188
M  V30 198 1 182 181
M  V30 199 2 183 182
M  V30 200 1 183 185
M  V30 201 1 184 182
M  V30 202 2 185 187
M  V30 203 1 186 183
M  V30 204 1 187 188
M  V30 205 1 187 189
M  V30 206 1 188 190
M  V30 207 2 192 186
M  V30 208 1 193 186
M  V30 209 1 194 192
M  V30 210 9 165 153
M  V30 211 9 158 153
M  V30 212 9 192 153
M  V30 213 9 185 153
M  V30 214 9 178 153
M  V30 215 9 171 153
M  V30 216 1 196 206
M  V30 217 2 196 203
M  V30 218 1 197 196
M  V30 219 2 198 197
M  V30 220 1 198 200
M  V30 221 1 199 197
M  V30 222 2 200 202
M  V30 223 1 201 198
M  V30 224 1 202 203
M  V30 225 1 202 204
M  V30 226 1 203 205
M  V30 227 2 207 201
M  V30 228 1 208 201
M  V30 229 1 209 219
M  V30 230 2 209 216
M  V30 231 1 210 209
M  V30 232 2 211 210
M  V30 233 1 211 213
M  V30 234 1 212 210
M  V30 235 2 213 215
M  V30 236 1 214 211
M  V30 237 1 215 216
M  V30 238 1 215 217
M  V30 239 1 216 218
M  V30 240 2 220 214
M  V30 241 1 221 214
M  V30 242 1 222 220
M  V30 243 1 223 233
M  V30 244 2 223 230
M  V30 245 1 224 223
M  V30 246 2 225 224
M  V30 247 1 225 227
M  V30 248 1 226 224
M  V30 249 2 227 229
M  V30 250 1 228 225
M  V30 251 1 229 230
M  V30 252 1 229 231
M  V30 253 1 230 232
M  V30 254 2 234 228
M  V30 255 1 235 228
M  V30 256 1 236 234
M  V30 257 9 207 195
M  V30 258 9 200 195
M  V30 259 9 234 195
M  V30 260 9 227 195
M  V30 261 9 220 195
M  V30 262 9 213 195
M  V30 263 1 11 123
M  V30 264 1 1 165
M  V30 265 1 34 207
M  V30 266 1 26 81
M  V30 END BOND
M  V30 END CTAB
M  END

$$$$
