
     RDKit          3D

  0  0  0  0  0  0  0  0  0  0999 V3000
M  V30 BEGIN CTAB
M  V30 COUNTS 216 244 0 0 0
M  V30 BEGIN ATOM
M  V30 1 C -5.1273 3.6134 0.5845 0
M  V30 2 C -4.2116 4.0058 -0.3945 0
M  V30 3 C -3.0933 3.2403 -0.6686 0
M  V30 4 C -2.8297 2.0581 0.0291 0
M  V30 5 C -1.5996 1.2692 -0.2066 0
M  V30 6 C -0.3767 1.9337 -0.3022 0
M  V30 7 C 0.8498 1.2791 -0.4121 0
M  V30 8 C 2.0735 2.0846 -0.6216 0
M  V30 9 C 2.3267 3.2292 0.1362 0
M  V30 10 C 3.4201 4.0369 -0.1193 0
M  V30 11 C 4.3136 3.7249 -1.1469 0
M  V30 12 C 4.0872 2.5594 -1.8826 0
M  V30 13 C 2.9856 1.7641 -1.6308 0
M  V30 14 C 0.8571 -0.1276 -0.3819 0
M  V30 15 C 2.0990 -0.9264 -0.3352 0
M  V30 16 C 2.2448 -2.0923 -1.0933 0
M  V30 17 C 3.3762 -2.8791 -0.9974 0
M  V30 18 C 4.4273 -2.5208 -0.1501 0
M  V30 19 C 4.2815 -1.3607 0.6198 0
M  V30 20 C 3.1405 -0.5872 0.5319 0
M  V30 21 C -0.3675 -0.7918 -0.3352 0
M  V30 22 C -1.5960 -0.1372 -0.2721 0
M  V30 23 C -2.8254 -0.9565 -0.3573 0
M  V30 24 C -2.9793 -2.1232 0.3960 0
M  V30 25 C -4.0843 -2.9408 0.2463 0
M  V30 26 C -5.0915 -2.6189 -0.6644 0
M  V30 27 C -4.9388 -1.4537 -1.4249 0
M  V30 28 C -3.8307 -0.6427 -1.2730 0
M  V30 29 C -3.7353 1.6829 1.0237 0
M  V30 30 C -4.8598 2.4387 1.2963 0
M  V30 31 H -4.4068 4.9038 -0.9608 0
M  V30 32 H -2.4229 3.5554 -1.4544 0
M  V30 33 H -0.3794 3.0140 -0.2928 0
M  V30 34 H 1.6614 3.4903 0.9457 0
M  V30 35 H 3.5961 4.9059 0.4976 0
M  V30 36 H 4.7570 2.3154 -2.6936 0
M  V30 37 H 2.8095 0.8965 -2.2489 0
M  V30 38 H 1.4651 -2.3749 -1.7848 0
M  V30 39 H 3.4773 -3.7642 -1.6069 0
M  V30 40 H 5.0456 -1.0970 1.3373 0
M  V30 41 H 3.0428 0.2836 1.1626 0
M  V30 42 H -0.3665 -1.8723 -0.3472 0
M  V30 43 H -2.2289 -2.3837 1.1282 0
M  V30 44 H -4.1930 -3.8224 0.8596 0
M  V30 45 H -5.6730 -1.2054 -2.1770 0
M  V30 46 H -3.7317 0.2359 -1.8924 0
M  V30 47 H -3.5450 0.7960 1.6096 0
M  V30 48 H -5.5144 2.1378 2.1011 0
M  V30 49 Zn -6.5121 -5.6458 -1.0479 0 CHG=2
M  V30 50 C -10.9657 -3.7763 -1.3962 0
M  V30 51 C -9.8135 -3.0173 -1.2472 0
M  V30 52 C -8.5858 -3.6634 -1.0994 0
M  V30 53 H -9.8621 -1.9395 -1.2515 0
M  V30 54 N -8.4861 -5.0022 -1.0975 0
M  V30 55 C -7.3654 -2.9008 -0.9275 0
M  V30 56 C -9.5904 -5.7229 -1.2288 0
M  V30 57 C -10.8524 -5.1580 -1.3798 0
M  V30 58 H -9.4712 -6.7967 -1.2083 0
M  V30 59 H -11.7210 -5.7889 -1.4826 0
M  V30 60 H -11.9276 -3.3030 -1.5192 0
M  V30 61 N -6.2164 -3.4465 -0.7955 0
M  V30 62 H -7.4867 -1.8168 -0.8917 0
M  V30 63 C -6.2442 -7.0242 3.6664 0
M  V30 64 C -5.1953 -7.1125 2.7593 0
M  V30 65 C -5.3873 -6.6486 1.4602 0
M  V30 66 H -4.2486 -7.5395 3.0524 0
M  V30 67 N -6.5500 -6.1148 1.0515 0
M  V30 68 C -4.3300 -6.7240 0.4614 0
M  V30 69 C -7.5456 -6.0363 1.9181 0
M  V30 70 C -7.4419 -6.4763 3.2362 0
M  V30 71 H -8.4706 -5.6114 1.5549 0
M  V30 72 H -8.2861 -6.3958 3.9025 0
M  V30 73 H -6.1291 -7.3798 4.6789 0
M  V30 74 N -4.5195 -6.2420 -0.6952 0
M  V30 75 H -3.4014 -7.2040 0.7729 0
M  V30 76 H -3.7521 -6.3351 -1.3528 0
M  V30 77 C -7.4762 -10.1062 -2.9381 0
M  V30 78 C -7.1635 -8.9766 -3.6852 0
M  V30 79 C -6.9149 -7.7769 -3.0219 0
M  V30 80 H -7.1132 -9.0258 -4.7622 0
M  V30 81 N -6.9683 -7.6668 -1.6823 0
M  V30 82 C -6.5784 -6.5675 -3.7570 0
M  V30 83 C -7.2735 -8.7461 -0.9795 0
M  V30 84 C -7.5332 -9.9861 -1.5586 0
M  V30 85 H -7.3208 -8.6263 0.0943 0
M  V30 86 H -7.7785 -10.8330 -0.9374 0
M  V30 87 H -7.6727 -11.0507 -3.4222 0
M  V30 88 N -6.3013 -5.4966 -3.1316 0
M  V30 89 H -6.5778 -6.6447 -4.8437 0
M  V30 90 H -6.0808 -4.6992 -3.7210 0
M  V30 91 Zn 7.5387 4.0565 -1.7851 0 CHG=2
M  V30 92 C 7.2922 8.8583 -2.2995 0
M  V30 93 C 6.2058 8.0568 -1.9736 0
M  V30 94 C 6.3912 6.6810 -1.8377 0
M  V30 95 H 5.2287 8.4917 -1.8312 0
M  V30 96 N 7.5945 6.1085 -2.0134 0
M  V30 97 C 5.2804 5.8046 -1.5136 0
M  V30 98 C 8.6285 6.8784 -2.3222 0
M  V30 99 C 8.5292 8.2570 -2.4757 0
M  V30 100 H 9.5796 6.3802 -2.4504 0
M  V30 101 H 9.4016 8.8394 -2.7272 0
M  V30 102 H 7.1767 9.9253 -2.4136 0
M  V30 103 N 5.4151 4.5346 -1.4578 0
M  V30 104 H 4.3159 6.2884 -1.3555 0
M  V30 105 C 8.2997 4.0941 3.1004 0
M  V30 106 C 7.7872 3.0139 2.3930 0
M  V30 107 C 7.6544 3.1148 1.0101 0
M  V30 108 H 7.5042 2.1068 2.9045 0
M  V30 109 N 7.9855 4.2270 0.3358 0
M  V30 110 C 7.1761 1.9993 0.2093 0
M  V30 111 C 8.4763 5.2506 1.0133 0
M  V30 112 C 8.6588 5.2312 2.3952 0
M  V30 113 H 8.7469 6.1262 0.4405 0
M  V30 114 H 9.0754 6.0889 2.8992 0
M  V30 115 H 8.4222 4.0449 4.1715 0
M  V30 116 N 7.1289 2.0936 -1.0524 0
M  V30 117 H 6.8865 1.1021 0.7606 0
M  V30 118 H 6.7973 1.2787 -1.5576 0
M  V30 119 C 12.0049 3.0814 -3.5742 0
M  V30 120 C 10.8474 3.1696 -4.3390 0
M  V30 121 C 9.6375 3.4335 -3.7015 0
M  V30 122 H 10.8837 3.0383 -5.4096 0
M  V30 123 N 9.5447 3.6096 -2.3709 0
M  V30 124 C 8.3944 3.5368 -4.4525 0
M  V30 125 C 10.6524 3.5288 -1.6507 0
M  V30 126 C 11.9030 3.2648 -2.2041 0
M  V30 127 H 10.5481 3.6855 -0.5860 0
M  V30 128 H 12.7752 3.2142 -1.5716 0
M  V30 129 H 12.9583 2.8808 -4.0388 0
M  V30 130 N 7.2966 3.7011 -3.8350 0
M  V30 131 H 8.4704 3.4616 -5.5365 0
M  V30 132 H 6.4753 3.7817 -4.4280 0
M  V30 133 Zn 5.8613 -5.5398 -0.0288 0 CHG=2
M  V30 134 C 10.3485 -3.6833 0.1294 0
M  V30 135 C 9.1954 -2.9125 0.0967 0
M  V30 136 C 7.9535 -3.5449 0.0261 0
M  V30 137 H 9.2552 -1.8353 0.1286 0
M  V30 138 N 7.8438 -4.8813 -0.0172 0
M  V30 139 C 6.7267 -2.7737 -0.0152 0
M  V30 140 C 8.9475 -5.6137 0.0071 0
M  V30 141 C 10.2225 -5.0633 0.0824 0
M  V30 142 H 8.8163 -6.6855 -0.0284 0
M  V30 143 H 11.0905 -5.7028 0.1058 0
M  V30 144 H 11.3217 -3.2215 0.1909 0
M  V30 145 N 5.5746 -3.3181 -0.1049 0
M  V30 146 H 6.8483 -1.6881 0.0002 0
M  V30 147 C 5.4171 -5.8686 4.8848 0
M  V30 148 C 4.3648 -5.9837 3.9849 0
M  V30 149 C 4.6231 -5.8468 2.6229 0
M  V30 150 H 3.3637 -6.1861 4.3329 0
M  V30 151 N 5.8523 -5.5938 2.1448 0
M  V30 152 C 3.5679 -6.0018 1.6331 0
M  V30 153 C 6.8497 -5.4876 3.0073 0
M  V30 154 C 6.6848 -5.6197 4.3842 0
M  V30 155 H 7.8304 -5.2987 2.5944 0
M  V30 156 H 7.5355 -5.5367 5.0419 0
M  V30 157 H 5.2518 -5.9793 5.9455 0
M  V30 158 N 3.8300 -5.8793 0.3990 0
M  V30 159 H 2.5751 -6.2349 2.0184 0
M  V30 160 H 3.0522 -6.0251 -0.2367 0
M  V30 161 C 6.8704 -10.2339 -1.0442 0
M  V30 162 C 6.6248 -9.2520 -1.9974 0
M  V30 163 C 6.3410 -7.9565 -1.5722 0
M  V30 164 H 6.6536 -9.4874 -3.0504 0
M  V30 165 N 6.2981 -7.6150 -0.2709 0
M  V30 166 C 6.0757 -6.8914 -2.5257 0
M  V30 167 C 6.5353 -8.5555 0.6297 0
M  V30 168 C 6.8239 -9.8766 0.2940 0
M  V30 169 H 6.5019 -8.2514 1.6668 0
M  V30 170 H 7.0117 -10.6028 1.0691 0
M  V30 171 H 7.0945 -11.2471 -1.3416 0
M  V30 172 N 5.7730 -5.7281 -2.1118 0
M  V30 173 H 6.1485 -7.1527 -3.5807 0
M  V30 174 H 5.6122 -5.0411 -2.8426 0
M  V30 175 Zn -6.5843 6.6079 0.9830 0 CHG=2
M  V30 176 C -10.9571 4.6623 1.7776 0
M  V30 177 C -9.8108 3.9153 1.5447 0
M  V30 178 C -8.6038 4.5737 1.3063 0
M  V30 179 H -9.8495 2.8370 1.5515 0
M  V30 180 N -8.5217 5.9133 1.2927 0
M  V30 181 C -7.3860 3.8261 1.0554 0
M  V30 182 C -9.6190 6.6229 1.5109 0
M  V30 183 C -10.8597 6.0452 1.7596 0
M  V30 184 H -9.5098 7.6979 1.4934 0
M  V30 185 H -11.7232 6.6668 1.9356 0
M  V30 186 H -11.9029 4.1791 1.9690 0
M  V30 187 N -6.2660 4.3940 0.8186 0
M  V30 188 H -7.4900 2.7394 1.0510 0
M  V30 189 C -5.3443 6.8107 5.7606 0
M  V30 190 C -4.4623 7.0042 4.7048 0
M  V30 191 C -4.9390 6.9020 3.4000 0
M  V30 192 H -3.4256 7.2394 4.8896 0
M  V30 193 N -6.2204 6.6120 3.1228 0
M  V30 194 C -4.0695 7.1346 2.2557 0
M  V30 195 C -7.0556 6.4335 4.1328 0
M  V30 196 C -6.6678 6.5243 5.4675 0
M  V30 197 H -8.0841 6.2177 3.8806 0
M  V30 198 H -7.3929 6.3809 6.2528 0
M  V30 199 H -5.0081 6.8911 6.7828 0
M  V30 200 N -4.5238 7.0183 1.0782 0
M  V30 201 H -3.0408 7.4174 2.4797 0
M  V30 202 H -3.8693 7.2229 0.3294 0
M  V30 203 C -7.6792 11.3418 0.2459 0
M  V30 204 C -7.6108 10.3787 -0.7542 0
M  V30 205 C -7.3008 9.0665 -0.4053 0
M  V30 206 H -7.7924 10.6416 -1.7851 0
M  V30 207 N -7.0684 8.6915 0.8661 0
M  V30 208 C -7.2127 8.0199 -1.4112 0
M  V30 209 C -7.1437 9.6133 1.8128 0
M  V30 210 C -7.4430 10.9490 1.5537 0
M  V30 211 H -6.9646 9.2812 2.8261 0
M  V30 212 H -7.4921 11.6593 2.3639 0
M  V30 213 H -7.9140 12.3681 0.0076 0
M  V30 214 N -6.8528 6.8470 -1.0794 0
M  V30 215 H -7.4647 8.3038 -2.4323 0
M  V30 216 H -6.8292 6.1736 -1.8396 0
M  V30 END ATOM
M  V30 BEGIN BOND
M  V30 1 2 1 2
M  V30 2 1 2 3
M  V30 3 2 3 4
M  V30 4 1 4 5
M  V30 5 2 5 6
M  V30 6 1 6 7
M  V30 7 1 7 8
M  V30 8 2 8 9
M  V30 9 1 9 10
M  V30 10 2 10 11
M  V30 11 1 11 12
M  V30 12 2 12 13
M  V30 13 2 7 14
M  V30 14 1 14 15
M  V30 15 2 15 16
M  V30 16 1 16 17
M  V30 17 2 17 18
M  V30 18 1 18 19
M  V30 19 2 19 20
M  V30 20 1 14 21
M  V30 21 2 21 22
M  V30 22 1 22 23
M  V30 23 2 23 24
M  V30 24 1 24 25
M  V30 25 2 25 26
M  V30 26 1 26 27
M  V30 27 2 27 28
M  V30 28 1 4 29
M  V30 29 2 29 30
M  V30 30 1 30 1
M  V30 31 1 22 5
M  V30 32 1 28 23
M  V30 33 1 13 8
M  V30 34 1 20 15
M  V30 35 1 2 31
M  V30 36 1 3 32
M  V30 37 1 6 33
M  V30 38 1 9 34
M  V30 39 1 10 35
M  V30 40 1 12 36
M  V30 41 1 13 37
M  V30 42 1 16 38
M  V30 43 1 17 39
M  V30 44 1 19 40
M  V30 45 1 20 41
M  V30 46 1 21 42
M  V30 47 1 24 43
M  V30 48 1 25 44
M  V30 49 1 27 45
M  V30 50 1 28 46
M  V30 51 1 29 47
M  V30 52 1 30 48
M  V30 53 1 50 60
M  V30 54 2 50 57
M  V30 55 1 51 50
M  V30 56 2 52 51
M  V30 57 1 52 54
M  V30 58 1 53 51
M  V30 59 2 54 56
M  V30 60 1 55 52
M  V30 61 1 56 57
M  V30 62 1 56 58
M  V30 63 1 57 59
M  V30 64 2 61 55
M  V30 65 1 62 55
M  V30 66 1 63 73
M  V30 67 2 63 70
M  V30 68 1 64 63
M  V30 69 2 65 64
M  V30 70 1 65 67
M  V30 71 1 66 64
M  V30 72 2 67 69
M  V30 73 1 68 65
M  V30 74 1 69 70
M  V30 75 1 69 71
M  V30 76 1 70 72
M  V30 77 2 74 68
M  V30 78 1 75 68
M  V30 79 1 76 74
M  V30 80 1 77 87
M  V30 81 2 77 84
M  V30 82 1 78 77
M  V30 83 2 79 78
M  V30 84 1 79 81
M  V30 85 1 80 78
M  V30 86 2 81 83
M  V30 87 1 82 79
M  V30 88 1 83 84
M  V30 89 1 83 85
M  V30 90 1 84 86
M  V30 91 2 88 82
M  V30 92 1 89 82
M  V30 93 1 90 88
M  V30 94 9 61 49
M  V30 95 9 54 49
M  V30 96 9 74 49
M  V30 97 9 67 49
M  V30 98 9 88 49
M  V30 99 9 81 49
M  V30 100 1 92 102
M  V30 101 2 92 99
M  V30 102 1 93 92
M  V30 103 2 94 93
M  V30 104 1 94 96
M  V30 105 1 95 93
M  V30 106 2 96 98
M  V30 107 1 97 94
M  V30 108 1 98 99
M  V30 109 1 98 100
M  V30 110 1 99 101
M  V30 111 2 103 97
M  V30 112 1 104 97
M  V30 113 1 105 115
M  V30 114 2 105 112
M  V30 115 1 106 105
M  V30 116 2 107 106
M  V30 117 1 107 109
M  V30 118 1 108 106
M  V30 119 2 109 111
M  V30 120 1 110 107
M  V30 121 1 111 112
M  V30 122 1 111 113
M  V30 123 1 112 114
M  V30 124 2 116 110
M  V30 125 1 117 110
M  V30 126 1 118 116
M  V30 127 1 119 129
M  V30 128 2 119 126
M  V30 129 1 120 119
M  V30 130 2 121 120
M  V30 131 1 121 123
M  V30 132 1 122 120
M  V30 133 2 123 125
M  V30 134 1 124 121
M  V30 135 1 125 126
M  V30 136 1 125 127
M  V30 137 1 126 128
M  V30 138 2 130 124
M  V30 139 1 131 124
M  V30 140 1 132 130
M  V30 141 9 103 91
M  V30 142 9 96 91
M  V30 143 9 130 91
M  V30 144 9 123 91
M  V30 145 9 116 91
M  V30 146 9 109 91
M  V30 147 1 134 144
M  V30 148 2 134 141
M  V30 149 1 135 134
M  V30 150 2 136 135
M  V30 151 1 136 138
M  V30 152 1 137 135
M  V30 153 2 138 140
M  V30 154 1 139 136
M  V30 155 1 140 141
M  V30 156 1 140 142
M  V30 157 1 141 143
M  V30 158 2 145 139
M  V30 159 1 146 139
M  V30 160 1 147 157
M  V30 161 2 147 154
M  V30 162 1 148 147
M  V30 163 2 149 148
M  V30 164 1 149 151
M  V30 165 1 150 148
M  V30 166 2 151 153
M  V30 167 1 152 149
M  V30 168 1 153 154
M  V30 169 1 153 155
M  V30 170 1 154 156
M  V30 171 2 158 152
M  V30 172 1 159 152
M  V30 173 1 160 158
M  V30 174 1 161 171
M  V30 175 2 161 168
M  V30 176 1 162 161
M  V30 177 2 163 162
M  V30 178 1 163 165
M  V30 179 1 164 162
M  V30 180 2 165 167
M  V30 181 1 166 163
M  V30 182 1 167 168
M  V30 183 1 167 169
M  V30 184 1 168 170
M  V30 185 2 172 166
M  V30 186 1 173 166
M  V30 187 1 174 172
M  V30 188 9 145 133
M  V30 189 9 138 133
M  V30 190 9 172 133
M  V30 191 9 165 133
M  V30 192 9 158 133
M  V30 193 9 151 133
M  V30 194 1 176 186
M  V30 195 2 176 183
M  V30 196 1 177 176
M  V30 197 2 178 177
M  V30 198 1 178 180
M  V30 199 1 179 177
M  V30 200 2 180 182
M  V30 201 1 181 178
M  V30 202 1 182 183
M  V30 203 1 182 184
M  V30 204 1 183 185
M  V30 205 2 187 181
M  V30 206 1 188 181
M  V30 207 1 189 199
M  V30 208 2 189 196
M  V30 209 1 190 189
M  V30 210 2 191 190
M  V30 211 1 191 193
M  V30 212 1 192 190
M  V30 213 2 193 195
M  V30 214 1 194 191
M  V30 215 1 195 196
M  V30 216 1 195 197
M  V30 217 1 196 198
M  V30 218 2 200 194
M  V30 219 1 201 194
M  V30 220 1 202 200
M  V30 221 1 203 213
M  V30 222 2 203 210
M  V30 223 1 204 203
M  V30 224 2 205 204
M  V30 225 1 205 207
M  V30 226 1 206 204
M  V30 227 2 207 209
M  V30 228 1 208 205
M  V30 229 1 209 210
M  V30 230 1 209 211
M  V30 231 1 210 212
M  V30 232 2 214 208
M  V30 233 1 215 208
M  V30 234 1 216 214
M  V30 235 9 187 175
M  V30 236 9 180 175
M  V30 237 9 214 175
M  V30 238 9 207 175
M  V30 239 9 200 175
M  V30 240 9 193 175
M  V30 241 1 11 103
M  V30 242 1 18 145
M  V30 243 1 26 61
M  V30 244 1 1 187
M  V30 END BOND
M  V30 END CTAB
M  END

$$$$
