
     RDKit          3D

  0  0  0  0  0  0  0  0  0  0999 V3000
M  V30 BEGIN CTAB
M  V30 COUNTS 230 259 0 0 0
M  V30 BEGIN ATOM
M  V30 1 C -7.6132 3.9407 -0.0748 0
M  V30 2 C -8.0270 2.9711 -0.9986 0
M  V30 3 C -7.3347 1.7898 -1.1520 0
M  V30 4 C -6.1987 1.5148 -0.3830 0
M  V30 5 N -5.4979 0.3114 -0.5510 0
M  V30 6 C -6.2091 -0.8715 -0.7699 0
M  V30 7 C -5.7239 -1.8805 -1.6127 0
M  V30 8 C -6.4378 -3.0425 -1.8152 0
M  V30 9 C -7.6806 -3.2485 -1.2060 0
M  V30 10 C -8.1594 -2.2451 -0.3524 0
M  V30 11 C -7.4392 -1.0908 -0.1360 0
M  V30 12 C -4.0901 0.3109 -0.5109 0
M  V30 13 C -3.3578 1.4087 -0.9667 0
M  V30 14 C -1.9775 1.4120 -0.9178 0
M  V30 15 C -1.2588 0.3199 -0.4258 0
M  V30 16 C 0.2147 0.3190 -0.3823 0
M  V30 17 C 0.9760 0.9903 -1.3431 0
M  V30 18 C 2.3580 0.9797 -1.3098 0
M  V30 19 C 3.0378 0.2862 -0.3101 0
M  V30 20 N 4.4539 0.2495 -0.2739 0
M  V30 21 C 5.1873 1.4210 -0.4757 0
M  V30 22 C 6.4387 1.3950 -1.1068 0
M  V30 23 C 7.1677 2.5494 -1.2904 0
M  V30 24 C 6.6733 3.7912 -0.8783 0
M  V30 25 C 5.4204 3.8174 -0.2499 0
M  V30 26 C 4.6972 2.6610 -0.0504 0
M  V30 27 C 5.1008 -0.9541 -0.0140 0
M  V30 28 C 6.3040 -0.9841 0.7050 0
M  V30 29 C 6.9758 -2.1648 0.9209 0
M  V30 30 C 6.4735 -3.3828 0.4400 0
M  V30 31 C 5.2383 -3.3614 -0.2170 0
M  V30 32 C 4.5703 -2.1780 -0.4455 0
M  V30 33 C 2.2899 -0.3805 0.6595 0
M  V30 34 C 0.9092 -0.3597 0.6228 0
M  V30 35 C -2.0001 -0.7760 0.0227 0
M  V30 36 C -3.3811 -0.7821 -0.0105 0
M  V30 37 C -5.7805 2.4843 0.5356 0
M  V30 38 C -6.4675 3.6724 0.6795 0
M  V30 39 H -8.8727 3.1684 -1.6400 0
M  V30 40 H -7.6647 1.0729 -1.8884 0
M  V30 41 H -4.7878 -1.7327 -2.1298 0
M  V30 42 H -6.0655 -3.7888 -2.5006 0
M  V30 43 H -9.0843 -2.3925 0.1847 0
M  V30 44 H -7.8248 -0.3468 0.5446 0
M  V30 45 H -3.8774 2.2647 -1.3707 0
M  V30 46 H -1.4506 2.2888 -1.2618 0
M  V30 47 H 0.4827 1.5072 -2.1517 0
M  V30 48 H 2.9170 1.4988 -2.0740 0
M  V30 49 H 6.8274 0.4571 -1.4740 0
M  V30 50 H 8.1148 2.5129 -1.8062 0
M  V30 51 H 5.0303 4.7491 0.1317 0
M  V30 52 H 3.7444 2.7086 0.4547 0
M  V30 53 H 6.7019 -0.0643 1.1065 0
M  V30 54 H 7.8798 -2.1544 1.5112 0
M  V30 55 H 4.8397 -4.2872 -0.6026 0
M  V30 56 H 3.6394 -2.1850 -0.9918 0
M  V30 57 H 2.7995 -0.9058 1.4544 0
M  V30 58 H 0.3626 -0.8573 1.4093 0
M  V30 59 H -1.4891 -1.6504 0.3965 0
M  V30 60 H -3.9198 -1.6409 0.3627 0
M  V30 61 H -4.9157 2.2904 1.1522 0
M  V30 62 H -6.1479 4.3881 1.4206 0
M  V30 63 Zn -7.7434 -6.4901 -1.6888 0 CHG=2
M  V30 64 C -12.5429 -6.6984 -2.1821 0
M  V30 65 C -11.8353 -5.5327 -1.9275 0
M  V30 66 C -10.4461 -5.5920 -1.8012 0
M  V30 67 H -12.3504 -4.5900 -1.8286 0
M  V30 68 N -9.7746 -6.7497 -1.9252 0
M  V30 69 C -9.6696 -4.3979 -1.5394 0
M  V30 70 C -10.4566 -7.8605 -2.1697 0
M  V30 71 C -11.8389 -7.8880 -2.3036 0
M  V30 72 H -9.8789 -8.7701 -2.2570 0
M  V30 73 H -12.3472 -8.8189 -2.4976 0
M  V30 74 H -13.6171 -6.6812 -2.2830 0
M  V30 75 N -8.3885 -4.4214 -1.4666 0
M  V30 76 H -10.2345 -3.4716 -1.4424 0
M  V30 77 C -7.7022 -7.2737 3.1963 0
M  V30 78 C -6.6159 -6.8118 2.4644 0
M  V30 79 C -6.7481 -6.6575 1.0866 0
M  V30 80 H -5.6812 -6.5806 2.9516 0
M  V30 81 N -7.8928 -6.9254 0.4400 0
M  V30 82 C -5.6314 -6.2220 0.2611 0
M  V30 83 C -8.9212 -7.3712 1.1408 0
M  V30 84 C -8.8749 -7.5666 2.5195 0
M  V30 85 H -9.8236 -7.5944 0.5899 0
M  V30 86 H -9.7396 -7.9428 3.0426 0
M  V30 87 H -7.6313 -7.4081 4.2646 0
M  V30 88 N -5.7798 -6.0893 -0.9897 0
M  V30 89 H -4.6890 -6.0409 0.7799 0
M  V30 90 H -4.9553 -5.8039 -1.5081 0
M  V30 91 C -6.4836 -10.9500 -3.3843 0
M  V30 92 C -6.6240 -9.8147 -4.1729 0
M  V30 93 C -6.9729 -8.6117 -3.5640 0
M  V30 94 H -6.4676 -9.8619 -5.2396 0
M  V30 95 N -7.1811 -8.5064 -2.2407 0
M  V30 96 C -7.1359 -7.3907 -4.3420 0
M  V30 97 C -7.0510 -9.5929 -1.4975 0
M  V30 98 C -6.7027 -10.8355 -2.0208 0
M  V30 99 H -7.2364 -9.4778 -0.4386 0
M  V30 100 H -6.6142 -11.6914 -1.3707 0
M  V30 101 H -6.2163 -11.8977 -3.8262 0
M  V30 102 N -7.3775 -6.2943 -3.7511 0
M  V30 103 H -7.0356 -7.4848 -5.4229 0
M  V30 104 H -7.4939 -5.4885 -4.3593 0
M  V30 105 Zn 9.6016 5.3014 -1.0266 0 CHG=2
M  V30 106 C 7.6849 9.5836 -2.2466 0
M  V30 107 C 6.9383 8.4403 -2.0048 0
M  V30 108 C 7.5945 7.2606 -1.6487 0
M  V30 109 H 5.8631 8.4576 -2.0918 0
M  V30 110 N 8.9315 7.2022 -1.5356 0
M  V30 111 C 6.8508 6.0438 -1.3979 0
M  V30 112 C 9.6401 8.2978 -1.7685 0
M  V30 113 C 9.0649 9.5116 -2.1249 0
M  V30 114 H 10.7119 8.2095 -1.6625 0
M  V30 115 H 9.6855 10.3753 -2.3016 0
M  V30 116 H 7.2039 10.5089 -2.5237 0
M  V30 117 N 7.4308 4.9368 -1.1126 0
M  V30 118 H 5.7682 6.1157 -1.5023 0
M  V30 119 C 9.7374 6.0224 3.8586 0
M  V30 120 C 9.9910 4.8070 3.2359 0
M  V30 121 C 9.9106 4.7320 1.8474 0
M  V30 122 H 10.2547 3.9358 3.8155 0
M  V30 123 N 9.5857 5.7894 1.0871 0
M  V30 124 C 10.2061 3.4959 1.1372 0
M  V30 125 C 9.3498 6.9445 1.6857 0
M  V30 126 C 9.4156 7.1129 3.0667 0
M  V30 127 H 9.1061 7.7808 1.0461 0
M  V30 128 H 9.2258 8.0802 3.5037 0
M  V30 129 H 9.7990 6.1154 4.9319 0
M  V30 130 N 10.0981 3.4490 -0.1243 0
M  V30 131 H 10.5266 2.6518 1.7485 0
M  V30 132 H 10.3479 2.5651 -0.5568 0
M  V30 133 C 14.3549 6.0674 -2.0682 0
M  V30 134 C 13.4112 5.5972 -2.9736 0
M  V30 135 C 12.0944 5.4349 -2.5502 0
M  V30 136 H 13.6921 5.3587 -3.9880 0
M  V30 137 N 11.6980 5.7202 -1.2973 0
M  V30 138 C 11.0666 4.9416 -3.4550 0
M  V30 139 C 12.6011 6.1751 -0.4439 0
M  V30 140 C 13.9396 6.3636 -0.7797 0
M  V30 141 H 12.2503 6.4072 0.5522 0
M  V30 142 H 14.6346 6.7379 -0.0448 0
M  V30 143 H 15.3841 6.2011 -2.3645 0
M  V30 144 N 9.8935 4.7209 -3.0219 0
M  V30 145 H 11.3668 4.7776 -4.4894 0
M  V30 146 H 9.2300 4.3896 -3.7165 0
M  V30 147 Zn 6.5019 -6.6072 0.9830 0 CHG=2
M  V30 148 C 11.3263 -6.9537 0.7050 0
M  V30 149 C 10.6143 -5.7726 0.5630 0
M  V30 150 C 9.2220 -5.7986 0.6668 0
M  V30 151 H 11.1263 -4.8420 0.3745 0
M  V30 152 N 8.5501 -6.9400 0.8938 0
M  V30 153 C 8.4456 -4.5879 0.5232 0
M  V30 154 C 9.2368 -8.0666 1.0255 0
M  V30 155 C 10.6225 -8.1256 0.9432 0
M  V30 156 H 8.6611 -8.9623 1.2114 0
M  V30 157 H 11.1341 -9.0668 1.0638 0
M  V30 158 H 12.4029 -6.9617 0.6327 0
M  V30 159 N 7.1626 -4.5840 0.5815 0
M  V30 160 H 9.0115 -3.6782 0.3261 0
M  V30 161 C 6.2763 -5.9862 5.8815 0
M  V30 162 C 5.2131 -5.7743 5.0129 0
M  V30 163 C 5.4020 -5.9942 3.6507 0
M  V30 164 H 4.2531 -5.4521 5.3858 0
M  V30 165 N 6.5792 -6.3904 3.1420 0
M  V30 166 C 4.3126 -5.8342 2.6993 0
M  V30 167 C 7.5864 -6.5931 3.9743 0
M  V30 168 C 7.4842 -6.4097 5.3514 0
M  V30 169 H 8.5172 -6.9251 3.5371 0
M  V30 170 H 8.3338 -6.6014 5.9874 0
M  V30 171 H 6.1607 -5.8321 6.9432 0
M  V30 172 N 4.5104 -6.0482 1.4662 0
M  V30 173 H 3.3474 -5.5420 3.1146 0
M  V30 174 H 3.7010 -5.9400 0.8634 0
M  V30 175 C 5.3739 -11.3825 0.5949 0
M  V30 176 C 5.5442 -10.5225 -0.4831 0
M  V30 177 C 5.8388 -9.1842 -0.2357 0
M  V30 178 H 5.4522 -10.8830 -1.4961 0
M  V30 179 N 5.9700 -8.6923 1.0079 0
M  V30 180 C 6.0218 -8.2365 -1.3266 0
M  V30 181 C 5.8095 -9.5178 2.0289 0
M  V30 182 C 5.5081 -10.8686 1.8749 0
M  V30 183 H 5.9298 -9.0932 3.0159 0
M  V30 184 H 5.3897 -11.4992 2.7416 0
M  V30 185 H 5.1471 -12.4257 0.4367 0
M  V30 186 N 6.2191 -7.0100 -1.0690 0
M  V30 187 H 5.9727 -8.6411 -2.3372 0
M  V30 188 H 6.3481 -6.4100 -1.8789 0
M  V30 189 Zn -7.6763 7.2338 0.2162 0 CHG=2
M  V30 190 C -12.5036 7.4619 0.1730 0
M  V30 191 C -11.7761 6.2851 0.0707 0
M  V30 192 C -10.3827 6.3381 0.1358 0
M  V30 193 H -12.2783 5.3395 -0.0610 0
M  V30 194 N -9.7247 7.4985 0.2970 0
M  V30 195 C -9.5894 5.1312 0.0361 0
M  V30 196 C -10.4261 8.6181 0.4066 0
M  V30 197 C -11.8142 8.6525 0.3503 0
M  V30 198 H -9.8610 9.5281 0.5497 0
M  V30 199 H -12.3379 9.5905 0.4429 0
M  V30 200 H -13.5813 7.4509 0.1186 0
M  V30 201 N -8.3080 5.1414 0.0932 0
M  V30 202 H -10.1485 4.2017 -0.0699 0
M  V30 203 C -6.6807 7.4430 5.0304 0
M  V30 204 C -5.7237 7.2700 4.0382 0
M  V30 205 C -6.1356 7.2081 2.7095 0
M  V30 206 H -4.6774 7.1874 4.2896 0
M  V30 207 N -7.4261 7.3062 2.3517 0
M  V30 208 C -5.1800 7.0335 1.6240 0
M  V30 209 C -8.3321 7.4741 3.2995 0
M  V30 210 C -8.0095 7.5490 4.6529 0
M  V30 211 H -9.3602 7.5582 2.9775 0
M  V30 212 H -8.7860 7.6915 5.3875 0
M  V30 213 H -6.3939 7.4978 6.0693 0
M  V30 214 N -5.5944 6.9220 0.4318 0
M  V30 215 H -4.1266 7.0002 1.9049 0
M  V30 216 H -4.8822 6.8058 -0.2819 0
M  V30 217 C -6.7153 11.9620 -0.9035 0
M  V30 218 C -6.9312 10.9547 -1.8359 0
M  V30 219 C -7.1958 9.6640 -1.3837 0
M  V30 220 H -6.8960 11.1664 -2.8935 0
M  V30 221 N -7.2501 9.3537 -0.0775 0
M  V30 222 C -7.4323 8.5732 -2.3189 0
M  V30 223 C -7.0507 10.3202 0.8036 0
M  V30 224 C -6.7794 11.6374 0.4421 0
M  V30 225 H -7.1137 10.0426 1.8469 0
M  V30 226 H -6.6285 12.3876 1.2019 0
M  V30 227 H -6.5080 12.9722 -1.2218 0
M  V30 228 N -7.6128 7.3937 -1.8868 0
M  V30 229 H -7.4408 8.8349 -3.3767 0
M  V30 230 H -7.7790 6.6910 -2.6015 0
M  V30 END ATOM
M  V30 BEGIN BOND
M  V30 1 2 1 2
M  V30 2 1 2 3
M  V30 3 2 3 4
M  V30 4 1 4 5
M  V30 5 1 5 6
M  V30 6 2 6 7
M  V30 7 1 7 8
M  V30 8 2 8 9
M  V30 9 1 9 10
M  V30 10 2 10 11
M  V30 11 1 5 12
M  V30 12 2 12 13
M  V30 13 1 13 14
M  V30 14 2 14 15
M  V30 15 1 15 16
M  V30 16 2 16 17
M  V30 17 1 17 18
M  V30 18 2 18 19
M  V30 19 1 19 20
M  V30 20 1 20 21
M  V30 21 2 21 22
M  V30 22 1 22 23
M  V30 23 2 23 24
M  V30 24 1 24 25
M  V30 25 2 25 26
M  V30 26 1 20 27
M  V30 27 2 27 28
M  V30 28 1 28 29
M  V30 29 2 29 30
M  V30 30 1 30 31
M  V30 31 2 31 32
M  V30 32 1 19 33
M  V30 33 2 33 34
M  V30 34 1 15 35
M  V30 35 2 35 36
M  V30 36 1 4 37
M  V30 37 2 37 38
M  V30 38 1 38 1
M  V30 39 1 11 6
M  V30 40 1 36 12
M  V30 41 1 34 16
M  V30 42 1 26 21
M  V30 43 1 32 27
M  V30 44 1 2 39
M  V30 45 1 3 40
M  V30 46 1 7 41
M  V30 47 1 8 42
M  V30 48 1 10 43
M  V30 49 1 11 44
M  V30 50 1 13 45
M  V30 51 1 14 46
M  V30 52 1 17 47
M  V30 53 1 18 48
M  V30 54 1 22 49
M  V30 55 1 23 50
M  V30 56 1 25 51
M  V30 57 1 26 52
M  V30 58 1 28 53
M  V30 59 1 29 54
M  V30 60 1 31 55
M  V30 61 1 32 56
M  V30 62 1 33 57
M  V30 63 1 34 58
M  V30 64 1 35 59
M  V30 65 1 36 60
M  V30 66 1 37 61
M  V30 67 1 38 62
M  V30 68 1 64 74
M  V30 69 2 64 71
M  V30 70 1 65 64
M  V30 71 2 66 65
M  V30 72 1 66 68
M  V30 73 1 67 65
M  V30 74 2 68 70
M  V30 75 1 69 66
M  V30 76 1 70 71
M  V30 77 1 70 72
M  V30 78 1 71 73
M  V30 79 2 75 69
M  V30 80 1 76 69
M  V30 81 1 77 87
M  V30 82 2 77 84
M  V30 83 1 78 77
M  V30 84 2 79 78
M  V30 85 1 79 81
M  V30 86 1 80 78
M  V30 87 2 81 83
M  V30 88 1 82 79
M  V30 89 1 83 84
M  V30 90 1 83 85
M  V30 91 1 84 86
M  V30 92 2 88 82
M  V30 93 1 89 82
M  V30 94 1 90 88
M  V30 95 1 91 101
M  V30 96 2 91 98
M  V30 97 1 92 91
M  V30 98 2 93 92
M  V30 99 1 93 95
M  V30 100 1 94 92
M  V30 101 2 95 97
M  V30 102 1 96 93
M  V30 103 1 97 98
M  V30 104 1 97 99
M  V30 105 1 98 100
M  V30 106 2 102 96
M  V30 107 1 103 96
M  V30 108 1 104 102
M  V30 109 9 75 63
M  V30 110 9 68 63
M  V30 111 9 88 63
M  V30 112 9 81 63
M  V30 113 9 102 63
M  V30 114 9 95 63
M  V30 115 1 106 116
M  V30 116 2 106 113
M  V30 117 1 107 106
M  V30 118 2 108 107
M  V30 119 1 108 110
M  V30 120 1 109 107
M  V30 121 2 110 112
M  V30 122 1 111 108
M  V30 123 1 112 113
M  V30 124 1 112 114
M  V30 125 1 113 115
M  V30 126 2 117 111
M  V30 127 1 118 111
M  V30 128 1 119 129
M  V30 129 2 119 126
M  V30 130 1 120 119
M  V30 131 2 121 120
M  V30 132 1 121 123
M  V30 133 1 122 120
M  V30 134 2 123 125
M  V30 135 1 124 121
M  V30 136 1 125 126
M  V30 137 1 125 127
M  V30 138 1 126 128
M  V30 139 2 130 124
M  V30 140 1 131 124
M  V30 141 1 132 130
M  V30 142 1 133 143
M  V30 143 2 133 140
M  V30 144 1 134 133
M  V30 145 2 135 134
M  V30 146 1 135 137
M  V30 147 1 136 134
M  V30 148 2 137 139
M  V30 149 1 138 135
M  V30 150 1 139 140
M  V30 151 1 139 141
M  V30 152 1 140 142
M  V30 153 2 144 138
M  V30 154 1 145 138
M  V30 155 1 146 144
M  V30 156 9 117 105
M  V30 157 9 110 105
M  V30 158 9 144 105
M  V30 159 9 137 105
M  V30 160 9 130 105
M  V30 161 9 123 105
M  V30 162 1 148 158
M  V30 163 2 148 155
M  V30 164 1 149 148
M  V30 165 2 150 149
M  V30 166 1 150 152
M  V30 167 1 151 149
M  V30 168 2 152 154
M  V30 169 1 153 150
M  V30 170 1 154 155
M  V30 171 1 154 156
M  V30 172 1 155 157
M  V30 173 2 159 153
M  V30 174 1 160 153
M  V30 175 1 161 171
M  V30 176 2 161 168
M  V30 177 1 162 161
M  V30 178 2 163 162
M  V30 179 1 163 165
M  V30 180 1 164 162
M  V30 181 2 165 167
M  V30 182 1 166 163
M  V30 183 1 167 168
M  V30 184 1 167 169
M  V30 185 1 168 170
M  V30 186 2 172 166
M  V30 187 1 173 166
M  V30 188 1 174 172
M  V30 189 1 175 185
M  V30 190 2 175 182
M  V30 191 1 176 175
M  V30 192 2 177 176
M  V30 193 1 177 179
M  V30 194 1 178 176
M  V30 195 2 179 181
M  V30 196 1 180 177
M  V30 197 1 181 182
M  V30 198 1 181 183
M  V30 199 1 182 184
M  V30 200 2 186 180
M  V30 201 1 187 180
M  V30 202 1 188 186
M  V30 203 9 159 147
M  V30 204 9 152 147
M  V30 205 9 186 147
M  V30 206 9 179 147
M  V30 207 9 172 147
M  V30 208 9 165 147
M  V30 209 1 190 200
M  V30 210 2 190 197
M  V30 211 1 191 190
M  V30 212 2 192 191
M  V30 213 1 192 194
M  V30 214 1 193 191
M  V30 215 2 194 196
M  V30 216 1 195 192
M  V30 217 1 196 197
M  V30 218 1 196 198
M  V30 219 1 197 199
M  V30 220 2 201 195
M  V30 221 1 202 195
M  V30 222 1 203 213
M  V30 223 2 203 210
M  V30 224 1 204 203
M  V30 225 2 205 204
M  V30 226 1 205 207
M  V30 227 1 206 204
M  V30 228 2 207 209
M  V30 229 1 208 205
M  V30 230 1 209 210
M  V30 231 1 209 211
M  V30 232 1 210 212
M  V30 233 2 214 208
M  V30 234 1 215 208
M  V30 235 1 216 214
M  V30 236 1 217 227
M  V30 237 2 217 224
M  V30 238 1 218 217
M  V30 239 2 219 218
M  V30 240 1 219 221
M  V30 241 1 220 218
M  V30 242 2 221 223
M  V30 243 1 222 219
M  V30 244 1 223 224
M  V30 245 1 223 225
M  V30 246 1 224 226
M  V30 247 2 228 222
M  V30 248 1 229 222
M  V30 249 1 230 228
M  V30 250 9 201 189
M  V30 251 9 194 189
M  V30 252 9 228 189
M  V30 253 9 221 189
M  V30 254 9 214 189
M  V30 255 9 207 189
M  V30 256 1 24 117
M  V30 257 1 30 159
M  V30 258 1 9 75
M  V30 259 1 1 201
M  V30 END BOND
M  V30 END CTAB
M  END

$$$$
