
     RDKit          3D

  0  0  0  0  0  0  0  0  0  0999 V3000
M  V30 BEGIN CTAB
M  V30 COUNTS 216 244 0 0 0
M  V30 BEGIN ATOM
M  V30 1 C -4.8612 1.9117 0.3857 0
M  V30 2 C -3.9043 2.2398 -0.5776 0
M  V30 3 C -2.8079 1.4272 -0.7906 0
M  V30 4 C -2.6038 0.2643 -0.0416 0
M  V30 5 C -1.3770 -0.5445 -0.1977 0
M  V30 6 C -0.1545 0.1218 -0.2660 0
M  V30 7 C 1.0717 -0.5369 -0.2995 0
M  V30 8 C 2.3047 0.2508 -0.5031 0
M  V30 9 C 2.5419 1.4446 0.1841 0
M  V30 10 C 3.6696 2.2065 -0.0575 0
M  V30 11 C 4.6221 1.7972 -0.9934 0
M  V30 12 C 4.3797 0.6100 -1.6971 0
M  V30 13 C 3.2460 -0.1399 -1.4589 0
M  V30 14 C 1.0785 -1.9416 -0.2059 0
M  V30 15 C 2.3427 -2.6979 -0.0586 0
M  V30 16 C 2.6267 -3.8280 -0.8250 0
M  V30 17 C 3.8106 -4.5260 -0.6624 0
M  V30 18 C 4.7592 -4.1207 0.2798 0
M  V30 19 C 4.4690 -3.0021 1.0634 0
M  V30 20 C 3.2863 -2.3087 0.8956 0
M  V30 21 C -0.1442 -2.6102 -0.1926 0
M  V30 22 C -1.3752 -1.9522 -0.2145 0
M  V30 23 C -2.6194 -2.7467 -0.3274 0
M  V30 24 C -2.8380 -3.8842 0.4515 0
M  V30 25 C -3.9635 -4.6706 0.2793 0
M  V30 26 C -4.9212 -4.3485 -0.6861 0
M  V30 27 C -4.7237 -3.1921 -1.4442 0
M  V30 28 C -3.5944 -2.4147 -1.2724 0
M  V30 29 C -3.5545 -0.0518 0.9316 0
M  V30 30 C -4.6609 0.7490 1.1393 0
M  V30 31 H -4.0526 3.1237 -1.1791 0
M  V30 32 H -2.1033 1.6878 -1.5663 0
M  V30 33 H -0.1583 1.2019 -0.2967 0
M  V30 34 H 1.8394 1.7703 0.9369 0
M  V30 35 H 3.8449 3.1108 0.5052 0
M  V30 36 H 5.0576 0.3031 -2.4804 0
M  V30 37 H 3.0731 -1.0320 -2.0409 0
M  V30 38 H 1.9218 -4.1595 -1.5725 0
M  V30 39 H 4.0141 -5.3797 -1.2916 0
M  V30 40 H 5.1581 -2.7092 1.8408 0
M  V30 41 H 3.0753 -1.4651 1.5362 0
M  V30 42 H -0.1383 -3.6901 -0.1659 0
M  V30 43 H -2.1219 -4.1584 1.2116 0
M  V30 44 H -4.1096 -5.5325 0.9135 0
M  V30 45 H -5.4422 -2.9408 -2.2101 0
M  V30 46 H -3.4466 -1.5534 -1.9069 0
M  V30 47 H -3.4101 -0.9243 1.5508 0
M  V30 48 H -5.3476 0.5038 1.9367 0
M  V30 49 Zn 6.1595 4.7558 -1.5355 0 CHG=2
M  V30 50 C 10.5060 2.6426 -2.0159 0
M  V30 51 C 9.3258 1.9445 -1.8082 0
M  V30 52 C 8.1388 2.6537 -1.6178 0
M  V30 53 H 9.3185 0.8649 -1.8019 0
M  V30 54 N 8.1081 3.9947 -1.6235 0
M  V30 55 C 6.8900 1.9570 -1.3871 0
M  V30 56 C 9.2404 4.6574 -1.8089 0
M  V30 57 C 10.4641 4.0286 -2.0103 0
M  V30 58 H 9.1770 5.7356 -1.7931 0
M  V30 59 H 11.3577 4.6131 -2.1607 0
M  V30 60 H 11.4370 2.1220 -2.1775 0
M  V30 61 N 5.7788 2.5591 -1.1940 0
M  V30 62 H 6.9586 0.8665 -1.3626 0
M  V30 63 C 6.0823 6.2941 3.1315 0
M  V30 64 C 5.0199 6.4123 2.2438 0
M  V30 65 C 5.1508 5.8840 0.9617 0
M  V30 66 H 4.1103 6.9128 2.5380 0
M  V30 67 N 6.2674 5.2603 0.5518 0
M  V30 68 C 4.0754 5.9849 -0.0171 0
M  V30 69 C 7.2759 5.1524 1.4006 0
M  V30 70 C 7.2317 5.6509 2.7005 0
M  V30 71 H 8.1626 4.6541 1.0345 0
M  V30 72 H 8.0844 5.5447 3.3522 0
M  V30 73 H 6.0152 6.6995 4.1295 0
M  V30 74 N 4.2113 5.4493 -1.1573 0
M  V30 75 H 3.1833 6.5286 0.2945 0
M  V30 76 H 3.4352 5.5607 -1.8021 0
M  V30 77 C 7.4116 9.0759 -3.5398 0
M  V30 78 C 6.9834 7.9617 -4.2526 0
M  V30 79 C 6.6559 6.8003 -3.5564 0
M  V30 80 H 6.9054 7.9941 -5.3287 0
M  V30 81 N 6.7394 6.7132 -2.2159 0
M  V30 82 C 6.2004 5.6084 -4.2541 0
M  V30 83 C 7.1510 7.7784 -1.5459 0
M  V30 84 C 7.4969 8.9799 -2.1598 0
M  V30 85 H 7.2167 7.6779 -0.4710 0
M  V30 86 H 7.8281 9.8162 -1.5644 0
M  V30 87 H 7.6727 9.9906 -4.0503 0
M  V30 88 N 5.8845 4.5651 -3.5993 0
M  V30 89 H 6.1486 5.6718 -5.3402 0
M  V30 90 H 5.5745 3.7809 -4.1657 0
M  V30 91 Zn 8.0425 -4.0817 0.2605 0 CHG=2
M  V30 92 C 8.5048 -8.8360 0.8765 0
M  V30 93 C 7.2838 -8.1810 0.7723 0
M  V30 94 C 7.2664 -6.7949 0.6181 0
M  V30 95 H 6.3605 -8.7380 0.8111 0
M  V30 96 N 8.4012 -6.0749 0.5659 0
M  V30 97 C 6.0156 -6.0642 0.5122 0
M  V30 98 C 9.5635 -6.7048 0.6691 0
M  V30 99 C 9.6678 -8.0824 0.8264 0
M  V30 100 H 10.4510 -6.0883 0.6272 0
M  V30 101 H 10.6379 -8.5473 0.9066 0
M  V30 102 H 8.5477 -9.9081 0.9945 0
M  V30 103 N 5.9847 -4.7883 0.4336 0
M  V30 104 H 5.1036 -6.6615 0.5275 0
M  V30 105 C 8.6609 -2.4589 4.8765 0
M  V30 106 C 8.1646 -1.6867 3.8333 0
M  V30 107 C 8.0349 -2.2614 2.5708 0
M  V30 108 H 7.8864 -0.6565 3.9949 0
M  V30 109 N 8.3631 -3.5407 2.3258 0
M  V30 110 C 7.5288 -1.5008 1.4401 0
M  V30 111 C 8.8346 -4.2707 3.3216 0
M  V30 112 C 9.0052 -3.7748 4.6142 0
M  V30 113 H 9.0943 -5.2944 3.0932 0
M  V30 114 H 9.3996 -4.4108 5.3910 0
M  V30 115 H 8.7772 -2.0423 5.8654 0
M  V30 116 N 7.4437 -2.0405 0.2962 0
M  V30 117 H 7.2329 -0.4693 1.6444 0
M  V30 118 H 7.0583 -1.4691 -0.4476 0
M  V30 119 C 12.5213 -2.9942 -1.5413 0
M  V30 120 C 11.4486 -3.4386 -2.3051 0
M  V30 121 C 10.2322 -3.6923 -1.6749 0
M  V30 122 H 11.5551 -3.5899 -3.3684 0
M  V30 123 N 10.0540 -3.5243 -0.3528 0
M  V30 124 C 9.0770 -4.1591 -2.4289 0
M  V30 125 C 11.0830 -3.1079 0.3681 0
M  V30 126 C 12.3330 -2.8267 -0.1783 0
M  V30 127 H 10.9144 -2.9952 1.4302 0
M  V30 128 H 13.1395 -2.4952 0.4566 0
M  V30 129 H 13.4781 -2.7934 -1.9991 0
M  V30 130 N 7.9580 -4.3011 -1.8460 0
M  V30 131 H 9.2367 -4.3648 -3.4868 0
M  V30 132 H 7.2054 -4.6443 -2.4360 0
M  V30 133 Zn -8.1867 -4.6198 -1.1747 0 CHG=2
M  V30 134 C -8.0775 -9.4333 -1.5532 0
M  V30 135 C -6.9582 -8.6505 -1.2999 0
M  V30 136 C -7.1036 -7.2667 -1.1999 0
M  V30 137 H -5.9872 -9.1068 -1.1848 0
M  V30 138 N -8.2997 -6.6691 -1.3413 0
M  V30 139 C -5.9574 -6.4109 -0.9533 0
M  V30 140 C -9.3649 -7.4211 -1.5811 0
M  V30 141 C -9.3059 -8.8059 -1.6955 0
M  V30 142 H -10.3082 -6.9026 -1.6841 0
M  V30 143 H -10.2024 -9.3728 -1.8917 0
M  V30 144 H -7.9930 -10.5060 -1.6379 0
M  V30 145 N -6.0581 -5.1364 -0.9177 0
M  V30 146 H -4.9982 -6.9159 -0.8355 0
M  V30 147 C -8.7092 -4.4949 3.7416 0
M  V30 148 C -8.2326 -3.4395 2.9745 0
M  V30 149 C -8.1707 -3.5849 1.5905 0
M  V30 150 H -7.9212 -2.5177 3.4415 0
M  V30 151 N -8.5395 -4.7162 0.9700 0
M  V30 152 C -7.7288 -2.4983 0.7315 0
M  V30 153 C -8.9968 -5.7159 1.7041 0
M  V30 154 C -9.1064 -5.6525 3.0925 0
M  V30 155 H -9.2996 -6.6079 1.1746 0
M  V30 156 H -9.4963 -6.4929 3.6448 0
M  V30 157 H -8.7749 -4.4118 4.8156 0
M  V30 158 N -7.7312 -2.6365 -0.5268 0
M  V30 159 H -7.4195 -1.5813 1.2382 0
M  V30 160 H -7.4266 -1.8378 -1.0731 0
M  V30 161 C -12.6954 -3.5311 -2.8033 0
M  V30 162 C -11.5740 -3.6738 -3.6121 0
M  V30 163 C -10.3496 -3.9725 -3.0192 0
M  V30 164 H -11.6490 -3.5574 -4.6825 0
M  V30 165 N -10.2089 -4.1307 -1.6907 0
M  V30 166 C -9.1432 -4.1348 -3.8182 0
M  V30 167 C -11.2831 -3.9997 -0.9284 0
M  V30 168 C -12.5449 -3.6986 -1.4358 0
M  V30 169 H -11.1417 -4.1452 0.1336 0
M  V30 170 H -13.3888 -3.6076 -0.7702 0
M  V30 171 H -13.6589 -3.3017 -3.2327 0
M  V30 172 N -8.0260 -4.3210 -3.2437 0
M  V30 173 H -9.2633 -4.0826 -4.8997 0
M  V30 174 H -7.2340 -4.4445 -3.8684 0
M  V30 175 Zn -6.1802 4.9713 0.6448 0 CHG=2
M  V30 176 C -10.6679 3.2607 1.3637 0
M  V30 177 C -9.5511 2.4538 1.2006 0
M  V30 178 C -8.3088 3.0462 0.9713 0
M  V30 179 H -9.6391 1.3795 1.2536 0
M  V30 180 N -8.1646 4.3784 0.8992 0
M  V30 181 C -7.1204 2.2364 0.7899 0
M  V30 182 C -9.2347 5.1452 1.0477 0
M  V30 183 C -10.5072 4.6356 1.2836 0
M  V30 184 H -9.0768 6.2121 0.9829 0
M  V30 185 H -11.3464 5.3021 1.4033 0
M  V30 186 H -11.6397 2.8300 1.5494 0
M  V30 187 N -5.9710 2.7438 0.5584 0
M  V30 188 H -7.2721 1.1555 0.8294 0
M  V30 189 C -5.1128 5.2415 5.4662 0
M  V30 190 C -4.1790 5.3384 4.4422 0
M  V30 191 C -4.6103 5.2283 3.1222 0
M  V30 192 H -3.1362 5.5057 4.6633 0
M  V30 193 N -5.8971 5.0196 2.8003 0
M  V30 194 C -3.6830 5.3632 2.0093 0
M  V30 195 C -6.7813 4.9316 3.7802 0
M  V30 196 C -6.4407 5.0382 5.1268 0
M  V30 197 H -7.8117 4.7791 3.4922 0
M  V30 198 H -7.2040 4.9706 5.8857 0
M  V30 199 H -4.8124 5.3311 6.4989 0
M  V30 200 N -4.0992 5.2565 0.8169 0
M  V30 201 H -2.6440 5.5675 2.2693 0
M  V30 202 H -3.4036 5.3870 0.0894 0
M  V30 203 C -7.1416 9.6977 -0.2705 0
M  V30 204 C -7.0502 8.7053 -1.2399 0
M  V30 205 C -6.7611 7.4016 -0.8441 0
M  V30 206 H -7.2012 8.9388 -2.2828 0
M  V30 207 N -6.5698 7.0621 0.4444 0
M  V30 208 C -6.6517 6.3259 -1.8161 0
M  V30 209 C -6.6607 8.0127 1.3608 0
M  V30 210 C -6.9419 9.3424 1.0541 0
M  V30 211 H -6.5100 7.7101 2.3879 0
M  V30 212 H -7.0069 10.0770 1.8413 0
M  V30 213 H -7.3655 10.7173 -0.5450 0
M  V30 214 N -6.3366 5.1545 -1.4359 0
M  V30 215 H -6.8475 6.5869 -2.8555 0
M  V30 216 H -6.2905 4.4607 -2.1764 0
M  V30 END ATOM
M  V30 BEGIN BOND
M  V30 1 2 1 2
M  V30 2 1 2 3
M  V30 3 2 3 4
M  V30 4 1 4 5
M  V30 5 2 5 6
M  V30 6 1 6 7
M  V30 7 1 7 8
M  V30 8 2 8 9
M  V30 9 1 9 10
M  V30 10 2 10 11
M  V30 11 1 11 12
M  V30 12 2 12 13
M  V30 13 2 7 14
M  V30 14 1 14 15
M  V30 15 2 15 16
M  V30 16 1 16 17
M  V30 17 2 17 18
M  V30 18 1 18 19
M  V30 19 2 19 20
M  V30 20 1 14 21
M  V30 21 2 21 22
M  V30 22 1 22 23
M  V30 23 2 23 24
M  V30 24 1 24 25
M  V30 25 2 25 26
M  V30 26 1 26 27
M  V30 27 2 27 28
M  V30 28 1 4 29
M  V30 29 2 29 30
M  V30 30 1 30 1
M  V30 31 1 22 5
M  V30 32 1 28 23
M  V30 33 1 13 8
M  V30 34 1 20 15
M  V30 35 1 2 31
M  V30 36 1 3 32
M  V30 37 1 6 33
M  V30 38 1 9 34
M  V30 39 1 10 35
M  V30 40 1 12 36
M  V30 41 1 13 37
M  V30 42 1 16 38
M  V30 43 1 17 39
M  V30 44 1 19 40
M  V30 45 1 20 41
M  V30 46 1 21 42
M  V30 47 1 24 43
M  V30 48 1 25 44
M  V30 49 1 27 45
M  V30 50 1 28 46
M  V30 51 1 29 47
M  V30 52 1 30 48
M  V30 53 1 50 60
M  V30 54 2 50 57
M  V30 55 1 51 50
M  V30 56 2 52 51
M  V30 57 1 52 54
M  V30 58 1 53 51
M  V30 59 2 54 56
M  V30 60 1 55 52
M  V30 61 1 56 57
M  V30 62 1 56 58
M  V30 63 1 57 59
M  V30 64 2 61 55
M  V30 65 1 62 55
M  V30 66 1 63 73
M  V30 67 2 63 70
M  V30 68 1 64 63
M  V30 69 2 65 64
M  V30 70 1 65 67
M  V30 71 1 66 64
M  V30 72 2 67 69
M  V30 73 1 68 65
M  V30 74 1 69 70
M  V30 75 1 69 71
M  V30 76 1 70 72
M  V30 77 2 74 68
M  V30 78 1 75 68
M  V30 79 1 76 74
M  V30 80 1 77 87
M  V30 81 2 77 84
M  V30 82 1 78 77
M  V30 83 2 79 78
M  V30 84 1 79 81
M  V30 85 1 80 78
M  V30 86 2 81 83
M  V30 87 1 82 79
M  V30 88 1 83 84
M  V30 89 1 83 85
M  V30 90 1 84 86
M  V30 91 2 88 82
M  V30 92 1 89 82
M  V30 93 1 90 88
M  V30 94 9 61 49
M  V30 95 9 54 49
M  V30 96 9 74 49
M  V30 97 9 67 49
M  V30 98 9 88 49
M  V30 99 9 81 49
M  V30 100 1 92 102
M  V30 101 2 92 99
M  V30 102 1 93 92
M  V30 103 2 94 93
M  V30 104 1 94 96
M  V30 105 1 95 93
M  V30 106 2 96 98
M  V30 107 1 97 94
M  V30 108 1 98 99
M  V30 109 1 98 100
M  V30 110 1 99 101
M  V30 111 2 103 97
M  V30 112 1 104 97
M  V30 113 1 105 115
M  V30 114 2 105 112
M  V30 115 1 106 105
M  V30 116 2 107 106
M  V30 117 1 107 109
M  V30 118 1 108 106
M  V30 119 2 109 111
M  V30 120 1 110 107
M  V30 121 1 111 112
M  V30 122 1 111 113
M  V30 123 1 112 114
M  V30 124 2 116 110
M  V30 125 1 117 110
M  V30 126 1 118 116
M  V30 127 1 119 129
M  V30 128 2 119 126
M  V30 129 1 120 119
M  V30 130 2 121 120
M  V30 131 1 121 123
M  V30 132 1 122 120
M  V30 133 2 123 125
M  V30 134 1 124 121
M  V30 135 1 125 126
M  V30 136 1 125 127
M  V30 137 1 126 128
M  V30 138 2 130 124
M  V30 139 1 131 124
M  V30 140 1 132 130
M  V30 141 9 103 91
M  V30 142 9 96 91
M  V30 143 9 116 91
M  V30 144 9 109 91
M  V30 145 9 130 91
M  V30 146 9 123 91
M  V30 147 1 134 144
M  V30 148 2 134 141
M  V30 149 1 135 134
M  V30 150 2 136 135
M  V30 151 1 136 138
M  V30 152 1 137 135
M  V30 153 2 138 140
M  V30 154 1 139 136
M  V30 155 1 140 141
M  V30 156 1 140 142
M  V30 157 1 141 143
M  V30 158 2 145 139
M  V30 159 1 146 139
M  V30 160 1 147 157
M  V30 161 2 147 154
M  V30 162 1 148 147
M  V30 163 2 149 148
M  V30 164 1 149 151
M  V30 165 1 150 148
M  V30 166 2 151 153
M  V30 167 1 152 149
M  V30 168 1 153 154
M  V30 169 1 153 155
M  V30 170 1 154 156
M  V30 171 2 158 152
M  V30 172 1 159 152
M  V30 173 1 160 158
M  V30 174 1 161 171
M  V30 175 2 161 168
M  V30 176 1 162 161
M  V30 177 2 163 162
M  V30 178 1 163 165
M  V30 179 1 164 162
M  V30 180 2 165 167
M  V30 181 1 166 163
M  V30 182 1 167 168
M  V30 183 1 167 169
M  V30 184 1 168 170
M  V30 185 2 172 166
M  V30 186 1 173 166
M  V30 187 1 174 172
M  V30 188 9 145 133
M  V30 189 9 138 133
M  V30 190 9 172 133
M  V30 191 9 165 133
M  V30 192 9 158 133
M  V30 193 9 151 133
M  V30 194 1 176 186
M  V30 195 2 176 183
M  V30 196 1 177 176
M  V30 197 2 178 177
M  V30 198 1 178 180
M  V30 199 1 179 177
M  V30 200 2 180 182
M  V30 201 1 181 178
M  V30 202 1 182 183
M  V30 203 1 182 184
M  V30 204 1 183 185
M  V30 205 2 187 181
M  V30 206 1 188 181
M  V30 207 1 189 199
M  V30 208 2 189 196
M  V30 209 1 190 189
M  V30 210 2 191 190
M  V30 211 1 191 193
M  V30 212 1 192 190
M  V30 213 2 193 195
M  V30 214 1 194 191
M  V30 215 1 195 196
M  V30 216 1 195 197
M  V30 217 1 196 198
M  V30 218 2 200 194
M  V30 219 1 201 194
M  V30 220 1 202 200
M  V30 221 1 203 213
M  V30 222 2 203 210
M  V30 223 1 204 203
M  V30 224 2 205 204
M  V30 225 1 205 207
M  V30 226 1 206 204
M  V30 227 2 207 209
M  V30 228 1 208 205
M  V30 229 1 209 210
M  V30 230 1 209 211
M  V30 231 1 210 212
M  V30 232 2 214 208
M  V30 233 1 215 208
M  V30 234 1 216 214
M  V30 235 9 187 175
M  V30 236 9 180 175
M  V30 237 9 214 175
M  V30 238 9 207 175
M  V30 239 9 200 175
M  V30 240 9 193 175
M  V30 241 1 11 61
M  V30 242 1 18 103
M  V30 243 1 26 145
M  V30 244 1 1 187
M  V30 END BOND
M  V30 END CTAB
M  END

$$$$
