
     RDKit          3D

  0  0  0  0  0  0  0  0  0  0999 V3000
M  V30 BEGIN CTAB
M  V30 COUNTS 236 266 0 0 0
M  V30 BEGIN ATOM
M  V30 1 C 7.2287 -4.9519 -0.8281 0
M  V30 2 C 6.1279 -4.7473 -1.6652 0
M  V30 3 C 5.4156 -3.5654 -1.6174 0
M  V30 4 C 5.7635 -2.5484 -0.7277 0
M  V30 5 C 5.0019 -1.2867 -0.6687 0
M  V30 6 C 5.6770 -0.0746 -0.5527 0
M  V30 7 C 4.9846 1.1328 -0.4957 0
M  V30 8 C 5.7219 2.4034 -0.3762 0
M  V30 9 C 5.2472 3.4436 0.4251 0
M  V30 10 C 5.9285 4.6402 0.5255 0
M  V30 11 C 7.1306 4.8340 -0.1601 0
M  V30 12 C 7.6317 3.7846 -0.9331 0
M  V30 13 C 6.9306 2.6021 -1.0500 0
M  V30 14 C 3.5915 1.1107 -0.5461 0
M  V30 15 C 2.8900 -0.0889 -0.6544 0
M  V30 16 C 1.4125 -0.0929 -0.6755 0
M  V30 17 C 0.6894 -1.0381 0.0515 0
M  V30 18 C -0.6929 -1.0290 0.0598 0
M  V30 19 C -1.4120 -0.0742 -0.6586 0
M  V30 20 C -2.8891 -0.0507 -0.6201 0
M  V30 21 C -3.5733 1.1581 -0.5035 0
M  V30 22 C -4.9653 1.1986 -0.4378 0
M  V30 23 C -5.6848 2.4788 -0.3119 0
M  V30 24 C -6.8969 2.6924 -0.9749 0
M  V30 25 C -7.5813 3.8841 -0.8533 0
M  V30 26 C -7.0594 4.9280 -0.0866 0
M  V30 27 C -5.8541 4.7190 0.5890 0
M  V30 28 C -5.1894 3.5135 0.4839 0
M  V30 29 C -5.6742 0.0005 -0.4870 0
M  V30 30 C -5.0167 -1.2204 -0.6109 0
M  V30 31 C -5.7965 -2.4712 -0.6627 0
M  V30 32 C -5.4744 -3.4910 -1.5589 0
M  V30 33 C -6.2055 -4.6616 -1.6017 0
M  V30 34 C -7.2997 -4.8514 -0.7527 0
M  V30 35 C -7.6404 -3.8261 0.1306 0
M  V30 36 C -6.8953 -2.6654 0.1781 0
M  V30 37 C -3.6247 -1.2335 -0.6801 0
M  V30 38 C -0.6893 0.8640 -1.3951 0
M  V30 39 C 0.6934 0.8549 -1.4034 0
M  V30 40 C 3.6092 -1.2813 -0.7221 0
M  V30 41 C 6.8693 -2.7570 0.1004 0
M  V30 42 C 7.5958 -3.9292 0.0476 0
M  V30 43 H 5.8556 -5.5047 -2.3853 0
M  V30 44 H 4.5860 -3.4217 -2.2926 0
M  V30 45 H 6.7560 -0.0731 -0.5074 0
M  V30 46 H 4.3370 3.3084 0.9889 0
M  V30 47 H 5.5498 5.4184 1.1717 0
M  V30 48 H 8.5502 3.9324 -1.4812 0
M  V30 49 H 7.3105 1.8272 -1.6983 0
M  V30 50 H 3.0429 2.0397 -0.5056 0
M  V30 51 H 1.2160 -1.7730 0.6425 0
M  V30 52 H -1.2220 -1.7569 0.6571 0
M  V30 53 H -3.0120 2.0797 -0.4688 0
M  V30 54 H -7.2928 1.9216 -1.6185 0
M  V30 55 H -8.5027 4.0433 -1.3934 0
M  V30 56 H -5.4595 5.4927 1.2309 0
M  V30 57 H -4.2760 3.3669 1.0398 0
M  V30 58 H -6.7525 0.0163 -0.4297 0
M  V30 59 H -4.6504 -3.3582 -2.2431 0
M  V30 60 H -5.9532 -5.4210 -2.3270 0
M  V30 61 H -8.4630 -3.9736 0.8140 0
M  V30 62 H -7.1505 -1.9043 0.9002 0
M  V30 63 H -3.1061 -2.1758 -0.7740 0
M  V30 64 H -1.2157 1.5974 -1.9882 0
M  V30 65 H 1.2222 1.5813 -2.0028 0
M  V30 66 H 3.0771 -2.2167 -0.8095 0
M  V30 67 H 7.1448 -1.9979 0.8172 0
M  V30 68 H 8.4242 -4.0875 0.7216 0
M  V30 69 Zn 10.0793 -6.5438 -1.0339 0 CHG=2
M  V30 70 C 8.0084 -10.9303 -0.9491 0
M  V30 71 C 7.3086 -9.7330 -0.9256 0
M  V30 72 C 8.0174 -8.5316 -0.9341 0
M  V30 73 H 6.2300 -9.7246 -0.9002 0
M  V30 74 N 9.3600 -8.4986 -0.9591 0
M  V30 75 C 7.3249 -7.2587 -0.9007 0
M  V30 76 C 10.0233 -9.6456 -0.9819 0
M  V30 77 C 9.3945 -10.8850 -0.9796 0
M  V30 78 H 11.1022 -9.5785 -1.0002 0
M  V30 79 H 9.9810 -11.7896 -1.0010 0
M  V30 80 H 7.4861 -11.8744 -0.9440 0
M  V30 81 N 7.9556 -6.1481 -0.8382 0
M  V30 82 H 6.2357 -7.2996 -0.9009 0
M  V30 83 C 11.2463 -5.8487 3.6976 0
M  V30 84 C 11.4461 -4.9135 2.6904 0
M  V30 85 C 11.0505 -5.2268 1.3925 0
M  V30 86 H 11.9019 -3.9591 2.9040 0
M  V30 87 N 10.4905 -6.4055 1.0766 0
M  V30 88 C 11.2127 -4.2771 0.2996 0
M  V30 89 C 10.3050 -7.2929 2.0385 0
M  V30 90 C 10.6611 -7.0596 3.3650 0
M  V30 91 H 9.8570 -8.2331 1.7494 0
M  V30 92 H 10.4859 -7.8160 4.1133 0
M  V30 93 H 11.5427 -5.6363 4.7132 0
M  V30 94 N 10.7759 -4.5645 -0.8538 0
M  V30 95 H 11.7057 -3.3348 0.5424 0
M  V30 96 H 10.9136 -3.8610 -1.5724 0
M  V30 97 C 14.5707 -7.7143 -2.7055 0
M  V30 98 C 13.4726 -7.4310 -3.5082 0
M  V30 99 C 12.2549 -7.1303 -2.9025 0
M  V30 100 H 13.5578 -7.4398 -4.5838 0
M  V30 101 N 12.0982 -7.1117 -1.5677 0
M  V30 102 C 11.0792 -6.8072 -3.6973 0
M  V30 103 C 13.1470 -7.3899 -0.8106 0
M  V30 104 C 14.4029 -7.6926 -1.3302 0
M  V30 105 H 12.9870 -7.3774 0.2589 0
M  V30 106 H 15.2249 -7.9091 -0.6663 0
M  V30 107 H 15.5284 -7.9474 -3.1447 0
M  V30 108 N 9.9982 -6.4668 -3.1256 0
M  V30 109 H 11.1925 -6.8690 -4.7793 0
M  V30 110 H 9.2274 -6.2550 -3.7518 0
M  V30 111 Zn -9.8438 6.5310 0.3041 0 CHG=2
M  V30 112 C -7.8194 10.9140 -0.1720 0
M  V30 113 C -7.1138 9.7198 -0.1853 0
M  V30 114 C -7.8082 8.5188 -0.0409 0
M  V30 115 H -6.0423 9.7133 -0.3103 0
M  V30 116 N -9.1420 8.4846 0.1163 0
M  V30 117 C -7.1153 7.2461 -0.0781 0
M  V30 118 C -9.8109 9.6285 0.1273 0
M  V30 119 C -9.1967 10.8670 -0.0142 0
M  V30 120 H -10.8816 9.5592 0.2589 0
M  V30 121 H -9.7871 11.7692 -0.0001 0
M  V30 122 H -7.3083 11.8575 -0.2834 0
M  V30 123 N -7.7532 6.1393 -0.0285 0
M  V30 124 H -6.0322 7.2825 -0.1946 0
M  V30 125 C -9.3180 6.2186 5.2153 0
M  V30 126 C -9.6533 5.1569 4.3852 0
M  V30 127 C -9.7687 5.3826 3.0156 0
M  V30 128 H -9.8290 4.1724 4.7905 0
M  V30 129 N -9.5671 6.5901 2.4653 0
M  V30 130 C -10.1314 4.3114 2.1004 0
M  V30 131 C -9.2488 7.5967 3.2610 0
M  V30 132 C -9.1113 7.4620 4.6406 0
M  V30 133 H -9.1011 8.5585 2.7905 0
M  V30 134 H -8.8542 8.3179 5.2442 0
M  V30 135 H -9.2264 6.0774 6.2811 0
M  V30 136 N -10.2384 4.5459 0.8601 0
M  V30 137 H -10.3030 3.3308 2.5455 0
M  V30 138 H -10.5023 3.7547 0.2822 0
M  V30 139 C -14.6393 7.5523 -0.0452 0
M  V30 140 C -13.8108 7.2643 -1.1227 0
M  V30 141 C -12.4657 6.9937 -0.8841 0
M  V30 142 H -14.1986 7.2486 -2.1296 0
M  V30 143 N -11.9345 7.0071 0.3509 0
M  V30 144 C -11.5548 6.6784 -1.9747 0
M  V30 145 C -12.7290 7.2861 1.3712 0
M  V30 146 C -14.0863 7.5617 1.2253 0
M  V30 147 H -12.2708 7.2968 2.3505 0
M  V30 148 H -14.6892 7.7826 2.0918 0
M  V30 149 H -15.6861 7.7658 -0.1974 0
M  V30 150 N -10.3507 6.3668 -1.7221 0
M  V30 151 H -11.9664 6.7218 -2.9828 0
M  V30 152 H -9.7740 6.1725 -2.5356 0
M  V30 153 Zn 9.9379 6.3983 0.2208 0 CHG=2
M  V30 154 C 7.9706 10.8096 -0.2342 0
M  V30 155 C 7.2491 9.6249 -0.2495 0
M  V30 156 C 7.9278 8.4144 -0.1103 0
M  V30 157 H 6.1773 9.6330 -0.3721 0
M  V30 158 N 9.2613 8.3619 0.0436 0
M  V30 159 C 7.2178 7.1511 -0.1485 0
M  V30 160 C 9.9454 9.4967 0.0567 0
M  V30 161 C 9.3474 10.7438 -0.0795 0
M  V30 162 H 11.0155 9.4129 0.1857 0
M  V30 163 H 9.9498 11.6380 -0.0636 0
M  V30 164 H 7.4718 11.7602 -0.3415 0
M  V30 165 N 7.8411 6.0358 -0.1046 0
M  V30 166 H 6.1347 7.2022 -0.2597 0
M  V30 167 C 9.4166 6.0656 5.1309 0
M  V30 168 C 9.7362 5.0041 4.2945 0
M  V30 169 C 9.8528 5.2360 2.9260 0
M  V30 170 H 9.8991 4.0151 4.6939 0
M  V30 171 N 9.6669 6.4493 2.3828 0
M  V30 172 C 10.1996 4.1651 2.0042 0
M  V30 173 C 9.3635 7.4556 3.1846 0
M  V30 174 C 9.2262 7.3151 4.5636 0
M  V30 175 H 9.2284 8.4220 2.7195 0
M  V30 176 H 8.9817 8.1710 5.1724 0
M  V30 177 H 9.3245 5.9198 6.1961 0
M  V30 178 N 10.3077 4.4050 0.7650 0
M  V30 179 H 10.3588 3.1798 2.4436 0
M  V30 180 H 10.5601 3.6137 0.1822 0
M  V30 181 C 14.7450 7.3594 -0.1347 0
M  V30 182 C 13.9103 7.0872 -1.2116 0
M  V30 183 C 12.5625 6.8326 -0.9711 0
M  V30 184 H 14.2955 7.0713 -2.2195 0
M  V30 185 N 12.0344 6.8470 0.2653 0
M  V30 186 C 11.6450 6.5340 -2.0609 0
M  V30 187 C 12.8348 7.1109 1.2850 0
M  V30 188 C 14.1951 7.3698 1.1371 0
M  V30 189 H 12.3790 7.1228 2.2653 0
M  V30 190 H 14.8028 7.5787 2.0032 0
M  V30 191 H 15.7941 7.5602 -0.2884 0
M  V30 192 N 10.4375 6.2369 -1.8070 0
M  V30 193 H 12.0549 6.5767 -3.0698 0
M  V30 194 H 9.8566 6.0536 -2.6200 0
M  V30 195 Zn -10.1784 -6.3941 -0.9309 0 CHG=2
M  V30 196 C -8.1820 -10.8154 -0.8903 0
M  V30 197 C -7.4616 -9.6304 -0.8695 0
M  V30 198 C -8.1498 -8.4170 -0.8639 0
M  V30 199 H -6.3827 -9.6405 -0.8570 0
M  V30 200 N -9.4919 -8.3610 -0.8726 0
M  V30 201 C -7.4353 -7.1563 -0.8332 0
M  V30 202 C -10.1749 -9.4965 -0.8927 0
M  V30 203 C -9.5673 -10.7464 -0.9038 0
M  V30 204 H -11.2526 -9.4109 -0.8978 0
M  V30 205 H -10.1694 -11.6407 -0.9224 0
M  V30 206 H -7.6759 -11.7683 -0.8959 0
M  V30 207 N -8.0464 -6.0354 -0.7588 0
M  V30 208 H -6.3470 -7.2156 -0.8464 0
M  V30 209 C -11.2770 -5.6964 3.8165 0
M  V30 210 C -11.4729 -4.7542 2.8149 0
M  V30 211 C -11.0984 -5.0696 1.5112 0
M  V30 212 H -11.9095 -3.7929 3.0374 0
M  V30 213 N -10.5626 -6.2566 1.1846 0
M  V30 214 C -11.2573 -4.1133 0.4237 0
M  V30 215 C -10.3808 -7.1505 2.1411 0
M  V30 216 C -10.7167 -6.9158 3.4726 0
M  V30 217 H -9.9525 -8.0972 1.8434 0
M  V30 218 H -10.5455 -7.6779 4.2161 0
M  V30 219 H -11.5574 -5.4825 4.8363 0
M  V30 220 N -10.8393 -4.4037 -0.7359 0
M  V30 221 H -11.7312 -3.1635 0.6757 0
M  V30 222 H -10.9735 -3.6954 -1.4502 0
M  V30 223 C -14.7087 -7.4796 -2.5543 0
M  V30 224 C -13.6153 -7.2123 -3.3688 0
M  V30 225 C -12.3855 -6.9354 -2.7763 0
M  V30 226 H -13.7131 -7.2154 -4.4434 0
M  V30 227 N -12.2129 -6.9249 -1.4433 0
M  V30 228 C -11.2137 -6.6298 -3.5835 0
M  V30 229 C -13.2575 -7.1878 -0.6751 0
M  V30 230 C -14.5245 -7.4663 -1.1810 0
M  V30 231 H -13.0849 -7.1823 0.3925 0
M  V30 232 H -15.3424 -7.6711 -0.5084 0
M  V30 233 H -15.6755 -7.6941 -2.9832 0
M  V30 234 N -10.1204 -6.3102 -3.0233 0
M  V30 235 H -11.3405 -6.6857 -4.6644 0
M  V30 236 H -9.3533 -6.1095 -3.6577 0
M  V30 END ATOM
M  V30 BEGIN BOND
M  V30 1 2 1 2
M  V30 2 1 2 3
M  V30 3 2 3 4
M  V30 4 1 4 5
M  V30 5 2 5 6
M  V30 6 1 6 7
M  V30 7 1 7 8
M  V30 8 2 8 9
M  V30 9 1 9 10
M  V30 10 2 10 11
M  V30 11 1 11 12
M  V30 12 2 12 13
M  V30 13 2 7 14
M  V30 14 1 14 15
M  V30 15 1 15 16
M  V30 16 2 16 17
M  V30 17 1 17 18
M  V30 18 2 18 19
M  V30 19 1 19 20
M  V30 20 2 20 21
M  V30 21 1 21 22
M  V30 22 1 22 23
M  V30 23 2 23 24
M  V30 24 1 24 25
M  V30 25 2 25 26
M  V30 26 1 26 27
M  V30 27 2 27 28
M  V30 28 2 22 29
M  V30 29 1 29 30
M  V30 30 1 30 31
M  V30 31 2 31 32
M  V30 32 1 32 33
M  V30 33 2 33 34
M  V30 34 1 34 35
M  V30 35 2 35 36
M  V30 36 2 30 37
M  V30 37 1 19 38
M  V30 38 2 38 39
M  V30 39 2 15 40
M  V30 40 1 4 41
M  V30 41 2 41 42
M  V30 42 1 42 1
M  V30 43 1 40 5
M  V30 44 1 13 8
M  V30 45 1 39 16
M  V30 46 1 37 20
M  V30 47 1 28 23
M  V30 48 1 36 31
M  V30 49 1 2 43
M  V30 50 1 3 44
M  V30 51 1 6 45
M  V30 52 1 9 46
M  V30 53 1 10 47
M  V30 54 1 12 48
M  V30 55 1 13 49
M  V30 56 1 14 50
M  V30 57 1 17 51
M  V30 58 1 18 52
M  V30 59 1 21 53
M  V30 60 1 24 54
M  V30 61 1 25 55
M  V30 62 1 27 56
M  V30 63 1 28 57
M  V30 64 1 29 58
M  V30 65 1 32 59
M  V30 66 1 33 60
M  V30 67 1 35 61
M  V30 68 1 36 62
M  V30 69 1 37 63
M  V30 70 1 38 64
M  V30 71 1 39 65
M  V30 72 1 40 66
M  V30 73 1 41 67
M  V30 74 1 42 68
M  V30 75 1 70 80
M  V30 76 2 70 77
M  V30 77 1 71 70
M  V30 78 2 72 71
M  V30 79 1 72 74
M  V30 80 1 73 71
M  V30 81 2 74 76
M  V30 82 1 75 72
M  V30 83 1 76 77
M  V30 84 1 76 78
M  V30 85 1 77 79
M  V30 86 2 81 75
M  V30 87 1 82 75
M  V30 88 1 83 93
M  V30 89 2 83 90
M  V30 90 1 84 83
M  V30 91 2 85 84
M  V30 92 1 85 87
M  V30 93 1 86 84
M  V30 94 2 87 89
M  V30 95 1 88 85
M  V30 96 1 89 90
M  V30 97 1 89 91
M  V30 98 1 90 92
M  V30 99 2 94 88
M  V30 100 1 95 88
M  V30 101 1 96 94
M  V30 102 1 97 107
M  V30 103 2 97 104
M  V30 104 1 98 97
M  V30 105 2 99 98
M  V30 106 1 99 101
M  V30 107 1 100 98
M  V30 108 2 101 103
M  V30 109 1 102 99
M  V30 110 1 103 104
M  V30 111 1 103 105
M  V30 112 1 104 106
M  V30 113 2 108 102
M  V30 114 1 109 102
M  V30 115 1 110 108
M  V30 116 9 81 69
M  V30 117 9 74 69
M  V30 118 9 94 69
M  V30 119 9 87 69
M  V30 120 9 108 69
M  V30 121 9 101 69
M  V30 122 1 112 122
M  V30 123 2 112 119
M  V30 124 1 113 112
M  V30 125 2 114 113
M  V30 126 1 114 116
M  V30 127 1 115 113
M  V30 128 2 116 118
M  V30 129 1 117 114
M  V30 130 1 118 119
M  V30 131 1 118 120
M  V30 132 1 119 121
M  V30 133 2 123 117
M  V30 134 1 124 117
M  V30 135 1 125 135
M  V30 136 2 125 132
M  V30 137 1 126 125
M  V30 138 2 127 126
M  V30 139 1 127 129
M  V30 140 1 128 126
M  V30 141 2 129 131
M  V30 142 1 130 127
M  V30 143 1 131 132
M  V30 144 1 131 133
M  V30 145 1 132 134
M  V30 146 2 136 130
M  V30 147 1 137 130
M  V30 148 1 138 136
M  V30 149 1 139 149
M  V30 150 2 139 146
M  V30 151 1 140 139
M  V30 152 2 141 140
M  V30 153 1 141 143
M  V30 154 1 142 140
M  V30 155 2 143 145
M  V30 156 1 144 141
M  V30 157 1 145 146
M  V30 158 1 145 147
M  V30 159 1 146 148
M  V30 160 2 150 144
M  V30 161 1 151 144
M  V30 162 1 152 150
M  V30 163 9 123 111
M  V30 164 9 116 111
M  V30 165 9 136 111
M  V30 166 9 129 111
M  V30 167 9 150 111
M  V30 168 9 143 111
M  V30 169 1 154 164
M  V30 170 2 154 161
M  V30 171 1 155 154
M  V30 172 2 156 155
M  V30 173 1 156 158
M  V30 174 1 157 155
M  V30 175 2 158 160
M  V30 176 1 159 156
M  V30 177 1 160 161
M  V30 178 1 160 162
M  V30 179 1 161 163
M  V30 180 2 165 159
M  V30 181 1 166 159
M  V30 182 1 167 177
M  V30 183 2 167 174
M  V30 184 1 168 167
M  V30 185 2 169 168
M  V30 186 1 169 171
M  V30 187 1 170 168
M  V30 188 2 171 173
M  V30 189 1 172 169
M  V30 190 1 173 174
M  V30 191 1 173 175
M  V30 192 1 174 176
M  V30 193 2 178 172
M  V30 194 1 179 172
M  V30 195 1 180 178
M  V30 196 1 181 191
M  V30 197 2 181 188
M  V30 198 1 182 181
M  V30 199 2 183 182
M  V30 200 1 183 185
M  V30 201 1 184 182
M  V30 202 2 185 187
M  V30 203 1 186 183
M  V30 204 1 187 188
M  V30 205 1 187 189
M  V30 206 1 188 190
M  V30 207 2 192 186
M  V30 208 1 193 186
M  V30 209 1 194 192
M  V30 210 9 165 153
M  V30 211 9 158 153
M  V30 212 9 192 153
M  V30 213 9 185 153
M  V30 214 9 178 153
M  V30 215 9 171 153
M  V30 216 1 196 206
M  V30 217 2 196 203
M  V30 218 1 197 196
M  V30 219 2 198 197
M  V30 220 1 198 200
M  V30 221 1 199 197
M  V30 222 2 200 202
M  V30 223 1 201 198
M  V30 224 1 202 203
M  V30 225 1 202 204
M  V30 226 1 203 205
M  V30 227 2 207 201
M  V30 228 1 208 201
M  V30 229 1 209 219
M  V30 230 2 209 216
M  V30 231 1 210 209
M  V30 232 2 211 210
M  V30 233 1 211 213
M  V30 234 1 212 210
M  V30 235 2 213 215
M  V30 236 1 214 211
M  V30 237 1 215 216
M  V30 238 1 215 217
M  V30 239 1 216 218
M  V30 240 2 220 214
M  V30 241 1 221 214
M  V30 242 1 222 220
M  V30 243 1 223 233
M  V30 244 2 223 230
M  V30 245 1 224 223
M  V30 246 2 225 224
M  V30 247 1 225 227
M  V30 248 1 226 224
M  V30 249 2 227 229
M  V30 250 1 228 225
M  V30 251 1 229 230
M  V30 252 1 229 231
M  V30 253 1 230 232
M  V30 254 2 234 228
M  V30 255 1 235 228
M  V30 256 1 236 234
M  V30 257 9 207 195
M  V30 258 9 200 195
M  V30 259 9 234 195
M  V30 260 9 227 195
M  V30 261 9 220 195
M  V30 262 9 213 195
M  V30 263 1 11 165
M  V30 264 1 1 81
M  V30 265 1 34 207
M  V30 266 1 26 123
M  V30 END BOND
M  V30 END CTAB
M  END

$$$$
