
     RDKit          3D

  0  0  0  0  0  0  0  0  0  0999 V3000
M  V30 BEGIN CTAB
M  V30 COUNTS 230 259 0 0 0
M  V30 BEGIN ATOM
M  V30 1 C -6.5191 3.9369 -0.0237 0
M  V30 2 C -7.0056 2.9297 -0.8634 0
M  V30 3 C -6.3047 1.7590 -1.0490 0
M  V30 4 C -5.0949 1.5227 -0.3803 0
M  V30 5 N -4.4020 0.3232 -0.5747 0
M  V30 6 C -5.1365 -0.8537 -0.7312 0
M  V30 7 C -4.7311 -1.8724 -1.6025 0
M  V30 8 C -5.4721 -3.0261 -1.7403 0
M  V30 9 C -6.6621 -3.2225 -1.0221 0
M  V30 10 C -7.0778 -2.1944 -0.1698 0
M  V30 11 C -6.3301 -1.0476 -0.0191 0
M  V30 12 C -2.9872 0.3117 -0.6007 0
M  V30 13 C -2.2654 1.4018 -1.0906 0
M  V30 14 C -0.8829 1.4018 -1.0852 0
M  V30 15 C -0.1476 0.3119 -0.6103 0
M  V30 16 C 1.3296 0.3154 -0.5943 0
M  V30 17 C 2.0775 1.0276 -1.5373 0
M  V30 18 C 3.4610 1.0331 -1.5161 0
M  V30 19 C 4.1606 0.3101 -0.5515 0
M  V30 20 N 5.5807 0.2948 -0.5227 0
M  V30 21 C 6.2939 1.4932 -0.6052 0
M  V30 22 C 7.5588 1.5482 -1.2085 0
M  V30 23 C 8.2743 2.7245 -1.2608 0
M  V30 24 C 7.7529 3.9137 -0.7403 0
M  V30 25 C 6.4833 3.8614 -0.1480 0
M  V30 26 C 5.7736 2.6813 -0.0791 0
M  V30 27 C 6.2480 -0.9167 -0.3695 0
M  V30 28 C 7.4531 -0.9952 0.3439 0
M  V30 29 C 8.1400 -2.1817 0.4592 0
M  V30 30 C 7.6542 -3.3617 -0.1239 0
M  V30 31 C 6.4217 -3.2952 -0.7840 0
M  V30 32 C 5.7368 -2.1058 -0.9085 0
M  V30 33 C 3.4275 -0.4056 0.3941 0
M  V30 34 C 2.0455 -0.3953 0.3743 0
M  V30 35 C -0.8813 -0.7826 -0.1432 0
M  V30 36 C -2.2638 -0.7840 -0.1281 0
M  V30 37 C -4.6223 2.5182 0.4824 0
M  V30 38 C -5.3133 3.6997 0.6502 0
M  V30 39 H -7.9156 3.1079 -1.4158 0
M  V30 40 H -6.6782 1.0179 -1.7398 0
M  V30 41 H -3.8343 -1.7425 -2.1887 0
M  V30 42 H -5.1512 -3.7668 -2.4572 0
M  V30 43 H -7.9727 -2.3341 0.4170 0
M  V30 44 H -6.6551 -0.2891 0.6777 0
M  V30 45 H -2.7911 2.2587 -1.4845 0
M  V30 46 H -0.3696 2.2783 -1.4493 0
M  V30 47 H 1.5746 1.5693 -2.3232 0
M  V30 48 H 4.0055 1.5906 -2.2637 0
M  V30 49 H 7.9713 0.6573 -1.6577 0
M  V30 50 H 9.2333 2.7504 -1.7551 0
M  V30 51 H 6.0679 4.7461 0.3106 0
M  V30 52 H 4.8080 2.6691 0.4032 0
M  V30 53 H 7.8408 -0.1095 0.8246 0
M  V30 54 H 9.0433 -2.2082 1.0501 0
M  V30 55 H 6.0371 -4.1876 -1.2531 0
M  V30 56 H 4.8065 -2.0786 -1.4553 0
M  V30 57 H 3.9496 -0.9598 1.1610 0
M  V30 58 H 1.5162 -0.9287 1.1489 0
M  V30 59 H -0.3659 -1.6618 0.2119 0
M  V30 60 H -2.7875 -1.6431 0.2649 0
M  V30 61 H -3.7077 2.3543 1.0315 0
M  V30 62 H -4.9379 4.4313 1.3498 0
M  V30 63 Zn -9.3826 5.5020 0.2657 0 CHG=2
M  V30 64 C -7.3705 9.8964 0.4365 0
M  V30 65 C -6.6506 8.7144 0.3452 0
M  V30 66 C -7.3371 7.4995 0.3102 0
M  V30 67 H -5.5729 8.7295 0.2987 0
M  V30 68 N -8.6790 7.4445 0.3596 0
M  V30 69 C -6.6242 6.2441 0.1995 0
M  V30 70 C -9.3618 8.5776 0.4465 0
M  V30 71 C -8.7552 9.8268 0.4901 0
M  V30 72 H -10.4383 8.4889 0.4887 0
M  V30 73 H -9.3554 10.7193 0.5643 0
M  V30 74 H -6.8653 10.8494 0.4652 0
M  V30 75 N -7.2396 5.1236 0.0973 0
M  V30 76 H -5.5372 6.3084 0.1646 0
M  V30 77 C -9.4173 4.7085 5.1477 0
M  V30 78 C -9.6377 3.7261 4.1908 0
M  V30 79 C -9.6164 4.0805 2.8440 0
M  V30 80 H -9.8296 2.7056 4.4844 0
M  V30 81 N -9.3778 5.3358 2.4338 0
M  V30 82 C -9.8825 3.1041 1.7992 0
M  V30 83 C -9.1749 6.2674 3.3493 0
M  V30 84 C -9.1882 6.0053 4.7177 0
M  V30 85 H -9.0025 7.2715 2.9891 0
M  V30 86 H -9.0276 6.8044 5.4237 0
M  V30 87 H -9.4329 4.4677 6.1995 0
M  V30 88 N -9.8460 3.4500 0.5814 0
M  V30 89 H -10.1202 2.0934 2.1346 0
M  V30 90 H -10.0638 2.7270 -0.0963 0
M  V30 91 C -14.1173 6.6220 -0.5134 0
M  V30 92 C -13.1694 6.4505 -1.5152 0
M  V30 93 C -11.8626 6.1283 -1.1574 0
M  V30 94 H -13.4392 6.5641 -2.5540 0
M  V30 95 N -11.4793 5.9814 0.1231 0
M  V30 96 C -10.8308 5.9310 -2.1655 0
M  V30 97 C -12.3865 6.1524 1.0710 0
M  V30 98 C -13.7162 6.4698 0.8044 0
M  V30 99 H -12.0462 6.0381 2.0909 0
M  V30 100 H -14.4151 6.5994 1.6154 0
M  V30 101 H -15.1385 6.8715 -0.7580 0
M  V30 102 N -9.6706 5.5521 -1.8159 0
M  V30 103 H -11.1175 6.1188 -3.1997 0
M  V30 104 H -9.0004 5.4503 -2.5729 0
M  V30 105 Zn 10.6585 5.4742 -0.6310 0 CHG=2
M  V30 106 C 8.7123 9.8347 -1.4378 0
M  V30 107 C 7.9796 8.6599 -1.3575 0
M  V30 108 C 8.6439 7.4580 -1.1058 0
M  V30 109 H 6.9089 8.6706 -1.4892 0
M  V30 110 N 9.9763 7.4084 -0.9422 0
M  V30 111 C 7.9136 6.2106 -1.0179 0
M  V30 112 C 10.6715 8.5343 -1.0202 0
M  V30 113 C 10.0871 9.7713 -1.2634 0
M  V30 114 H 11.7397 8.4514 -0.8775 0
M  V30 115 H 10.6966 10.6592 -1.3143 0
M  V30 116 H 8.2242 10.7773 -1.6313 0
M  V30 117 N 8.5014 5.0861 -0.8327 0
M  V30 118 H 6.8342 6.2798 -1.1512 0
M  V30 119 C 10.4874 5.5825 4.3038 0
M  V30 120 C 10.8054 4.4584 3.5525 0
M  V30 121 C 10.8221 4.5595 2.1636 0
M  V30 122 H 11.0438 3.5229 4.0347 0
M  V30 123 N 10.5319 5.7019 1.5221 0
M  V30 124 C 11.1866 3.4259 1.3255 0
M  V30 125 C 10.2366 6.7702 2.2429 0
M  V30 126 C 10.2033 6.7623 3.6352 0
M  V30 127 H 10.0249 7.6791 1.6980 0
M  V30 128 H 9.9669 7.6647 4.1762 0
M  V30 129 H 10.4715 5.5386 5.3819 0
M  V30 130 N 11.1578 3.5361 0.0639 0
M  V30 131 H 11.4866 2.5161 1.8465 0
M  V30 132 H 11.4525 2.7172 -0.4591 0
M  V30 133 C 15.4500 6.3843 -1.3393 0
M  V30 134 C 14.5558 6.0224 -2.3397 0
M  V30 135 C 13.2207 5.8106 -2.0047 0
M  V30 136 H 14.8887 5.9037 -3.3594 0
M  V30 137 N 12.7606 5.9475 -0.7487 0
M  V30 138 C 12.2422 5.4246 -3.0113 0
M  V30 139 C 13.6164 6.3027 0.1958 0
M  V30 140 C 14.9687 6.5299 -0.0480 0
M  V30 141 H 13.2141 6.4186 1.1927 0
M  V30 142 H 15.6235 6.8177 0.7591 0
M  V30 143 H 16.4920 6.5511 -1.5657 0
M  V30 144 N 11.0532 5.1445 -2.6649 0
M  V30 145 H 12.5925 5.3909 -4.0424 0
M  V30 146 H 10.4267 4.8966 -3.4255 0
M  V30 147 Zn 7.6645 -6.6227 0.1183 0 CHG=2
M  V30 148 C 12.4922 -6.9711 0.0275 0
M  V30 149 C 11.7918 -5.7769 -0.0481 0
M  V30 150 C 10.3958 -5.8003 -0.0079 0
M  V30 151 H 12.3167 -4.8386 -0.1366 0
M  V30 152 N 9.7118 -6.9521 0.0950 0
M  V30 153 C 9.6294 -4.5756 -0.0802 0
M  V30 154 C 10.3873 -8.0911 0.1635 0
M  V30 155 C 11.7748 -8.1537 0.1377 0
M  V30 156 H 9.8000 -8.9943 0.2497 0
M  V30 157 H 12.2769 -9.1055 0.2029 0
M  V30 158 H 13.5710 -6.9814 0.0022 0
M  V30 159 N 8.3449 -4.5688 -0.0693 0
M  V30 160 H 10.2075 -3.6573 -0.1761 0
M  V30 161 C 7.2177 -6.4010 5.0369 0
M  V30 162 C 6.1878 -6.1428 4.1415 0
M  V30 163 C 6.4400 -6.2484 2.7760 0
M  V30 164 H 5.2049 -5.8720 4.4951 0
M  V30 165 N 7.6469 -6.5783 2.2908 0
M  V30 166 C 5.3882 -6.0343 1.7925 0
M  V30 167 C 8.6224 -6.8261 3.1483 0
M  V30 168 C 8.4573 -6.7552 4.5295 0
M  V30 169 H 9.5786 -7.1031 2.7282 0
M  V30 170 H 9.2833 -6.9792 5.1856 0
M  V30 171 H 7.0530 -6.3350 6.1013 0
M  V30 172 N 5.6465 -6.1342 0.5565 0
M  V30 173 H 4.3974 -5.8049 2.1861 0
M  V30 174 H 4.8607 -5.9979 -0.0716 0
M  V30 175 C 6.4933 -11.3323 -0.7134 0
M  V30 176 C 6.7050 -10.3841 -1.7068 0
M  V30 177 C 7.0214 -9.0799 -1.3352 0
M  V30 178 H 6.6266 -10.6509 -2.7495 0
M  V30 179 N 7.1341 -8.7033 -0.0503 0
M  V30 180 C 7.2501 -8.0443 -2.3337 0
M  V30 181 C 6.9366 -9.6129 0.8896 0
M  V30 182 C 6.6122 -10.9378 0.6097 0
M  V30 183 H 7.0450 -9.2803 1.9127 0
M  V30 184 H 6.4634 -11.6404 1.4141 0
M  V30 185 H 6.2468 -12.3515 -0.9687 0
M  V30 186 N 7.4638 -6.8491 -1.9651 0
M  V30 187 H 7.2205 -8.3581 -3.3767 0
M  V30 188 H 7.6253 -6.1841 -2.7164 0
M  V30 189 Zn -9.5759 -4.7648 -1.2835 0 CHG=2
M  V30 190 C -7.5957 -9.1536 -1.6151 0
M  V30 191 C -6.8711 -7.9743 -1.5353 0
M  V30 192 C -7.5519 -6.7634 -1.3936 0
M  V30 193 H -5.7935 -7.9867 -1.5836 0
M  V30 194 N -8.8932 -6.7108 -1.3350 0
M  V30 195 C -6.8292 -5.5156 -1.2770 0
M  V30 196 C -9.5803 -7.8429 -1.4011 0
M  V30 197 C -8.9795 -9.0875 -1.5395 0
M  V30 198 H -10.6557 -7.7579 -1.3361 0
M  V30 199 H -9.5832 -9.9795 -1.5874 0
M  V30 200 H -7.0952 -10.1025 -1.7301 0
M  V30 201 N -7.4223 -4.3874 -1.1183 0
M  V30 202 H -5.7425 -5.5917 -1.2930 0
M  V30 203 C -10.8751 -4.5367 3.4640 0
M  V30 204 C -11.0871 -3.5187 2.5428 0
M  V30 205 C -10.6381 -3.6892 1.2355 0
M  V30 206 H -11.5969 -2.6124 2.8318 0
M  V30 207 N -10.0072 -4.8033 0.8318 0
M  V30 208 C -10.8317 -2.6597 0.2234 0
M  V30 209 C -9.8113 -5.7703 1.7113 0
M  V30 210 C -10.2248 -5.6839 3.0392 0
M  V30 211 H -9.3090 -6.6568 1.3513 0
M  V30 212 H -10.0453 -6.5030 3.7172 0
M  V30 213 H -11.2146 -4.4371 4.4836 0
M  V30 214 N -10.3397 -2.8137 -0.9336 0
M  V30 215 H -11.4044 -1.7823 0.5276 0
M  V30 216 H -10.5144 -2.0705 -1.6021 0
M  V30 217 C -14.0814 -5.8517 -3.0449 0
M  V30 218 C -12.9871 -5.4973 -3.8247 0
M  V30 219 C -11.7723 -5.2276 -3.1984 0
M  V30 220 H -13.0752 -5.4298 -4.8982 0
M  V30 221 N -11.6153 -5.2991 -1.8654 0
M  V30 222 C -10.5971 -4.8480 -3.9691 0
M  V30 223 C -12.6600 -5.6472 -1.1316 0
M  V30 224 C -13.9119 -5.9308 -1.6718 0
M  V30 225 H -12.5003 -5.7103 -0.0638 0
M  V30 226 H -14.7297 -6.2108 -1.0268 0
M  V30 227 H -15.0371 -6.0634 -3.4996 0
M  V30 228 N -9.5186 -4.5381 -3.3748 0
M  V30 229 H -10.7081 -4.8463 -5.0530 0
M  V30 230 H -8.7444 -4.2912 -3.9845 0
M  V30 END ATOM
M  V30 BEGIN BOND
M  V30 1 2 1 2
M  V30 2 1 2 3
M  V30 3 2 3 4
M  V30 4 1 4 5
M  V30 5 1 5 6
M  V30 6 2 6 7
M  V30 7 1 7 8
M  V30 8 2 8 9
M  V30 9 1 9 10
M  V30 10 2 10 11
M  V30 11 1 5 12
M  V30 12 2 12 13
M  V30 13 1 13 14
M  V30 14 2 14 15
M  V30 15 1 15 16
M  V30 16 2 16 17
M  V30 17 1 17 18
M  V30 18 2 18 19
M  V30 19 1 19 20
M  V30 20 1 20 21
M  V30 21 2 21 22
M  V30 22 1 22 23
M  V30 23 2 23 24
M  V30 24 1 24 25
M  V30 25 2 25 26
M  V30 26 1 20 27
M  V30 27 2 27 28
M  V30 28 1 28 29
M  V30 29 2 29 30
M  V30 30 1 30 31
M  V30 31 2 31 32
M  V30 32 1 19 33
M  V30 33 2 33 34
M  V30 34 1 15 35
M  V30 35 2 35 36
M  V30 36 1 4 37
M  V30 37 2 37 38
M  V30 38 1 38 1
M  V30 39 1 11 6
M  V30 40 1 36 12
M  V30 41 1 34 16
M  V30 42 1 26 21
M  V30 43 1 32 27
M  V30 44 1 2 39
M  V30 45 1 3 40
M  V30 46 1 7 41
M  V30 47 1 8 42
M  V30 48 1 10 43
M  V30 49 1 11 44
M  V30 50 1 13 45
M  V30 51 1 14 46
M  V30 52 1 17 47
M  V30 53 1 18 48
M  V30 54 1 22 49
M  V30 55 1 23 50
M  V30 56 1 25 51
M  V30 57 1 26 52
M  V30 58 1 28 53
M  V30 59 1 29 54
M  V30 60 1 31 55
M  V30 61 1 32 56
M  V30 62 1 33 57
M  V30 63 1 34 58
M  V30 64 1 35 59
M  V30 65 1 36 60
M  V30 66 1 37 61
M  V30 67 1 38 62
M  V30 68 1 64 74
M  V30 69 2 64 71
M  V30 70 1 65 64
M  V30 71 2 66 65
M  V30 72 1 66 68
M  V30 73 1 67 65
M  V30 74 2 68 70
M  V30 75 1 69 66
M  V30 76 1 70 71
M  V30 77 1 70 72
M  V30 78 1 71 73
M  V30 79 2 75 69
M  V30 80 1 76 69
M  V30 81 1 77 87
M  V30 82 2 77 84
M  V30 83 1 78 77
M  V30 84 2 79 78
M  V30 85 1 79 81
M  V30 86 1 80 78
M  V30 87 2 81 83
M  V30 88 1 82 79
M  V30 89 1 83 84
M  V30 90 1 83 85
M  V30 91 1 84 86
M  V30 92 2 88 82
M  V30 93 1 89 82
M  V30 94 1 90 88
M  V30 95 1 91 101
M  V30 96 2 91 98
M  V30 97 1 92 91
M  V30 98 2 93 92
M  V30 99 1 93 95
M  V30 100 1 94 92
M  V30 101 2 95 97
M  V30 102 1 96 93
M  V30 103 1 97 98
M  V30 104 1 97 99
M  V30 105 1 98 100
M  V30 106 2 102 96
M  V30 107 1 103 96
M  V30 108 1 104 102
M  V30 109 9 75 63
M  V30 110 9 68 63
M  V30 111 9 88 63
M  V30 112 9 81 63
M  V30 113 9 102 63
M  V30 114 9 95 63
M  V30 115 1 106 116
M  V30 116 2 106 113
M  V30 117 1 107 106
M  V30 118 2 108 107
M  V30 119 1 108 110
M  V30 120 1 109 107
M  V30 121 2 110 112
M  V30 122 1 111 108
M  V30 123 1 112 113
M  V30 124 1 112 114
M  V30 125 1 113 115
M  V30 126 2 117 111
M  V30 127 1 118 111
M  V30 128 1 119 129
M  V30 129 2 119 126
M  V30 130 1 120 119
M  V30 131 2 121 120
M  V30 132 1 121 123
M  V30 133 1 122 120
M  V30 134 2 123 125
M  V30 135 1 124 121
M  V30 136 1 125 126
M  V30 137 1 125 127
M  V30 138 1 126 128
M  V30 139 2 130 124
M  V30 140 1 131 124
M  V30 141 1 132 130
M  V30 142 1 133 143
M  V30 143 2 133 140
M  V30 144 1 134 133
M  V30 145 2 135 134
M  V30 146 1 135 137
M  V30 147 1 136 134
M  V30 148 2 137 139
M  V30 149 1 138 135
M  V30 150 1 139 140
M  V30 151 1 139 141
M  V30 152 1 140 142
M  V30 153 2 144 138
M  V30 154 1 145 138
M  V30 155 1 146 144
M  V30 156 9 117 105
M  V30 157 9 110 105
M  V30 158 9 144 105
M  V30 159 9 137 105
M  V30 160 9 130 105
M  V30 161 9 123 105
M  V30 162 1 148 158
M  V30 163 2 148 155
M  V30 164 1 149 148
M  V30 165 2 150 149
M  V30 166 1 150 152
M  V30 167 1 151 149
M  V30 168 2 152 154
M  V30 169 1 153 150
M  V30 170 1 154 155
M  V30 171 1 154 156
M  V30 172 1 155 157
M  V30 173 2 159 153
M  V30 174 1 160 153
M  V30 175 1 161 171
M  V30 176 2 161 168
M  V30 177 1 162 161
M  V30 178 2 163 162
M  V30 179 1 163 165
M  V30 180 1 164 162
M  V30 181 2 165 167
M  V30 182 1 166 163
M  V30 183 1 167 168
M  V30 184 1 167 169
M  V30 185 1 168 170
M  V30 186 2 172 166
M  V30 187 1 173 166
M  V30 188 1 174 172
M  V30 189 1 175 185
M  V30 190 2 175 182
M  V30 191 1 176 175
M  V30 192 2 177 176
M  V30 193 1 177 179
M  V30 194 1 178 176
M  V30 195 2 179 181
M  V30 196 1 180 177
M  V30 197 1 181 182
M  V30 198 1 181 183
M  V30 199 1 182 184
M  V30 200 2 186 180
M  V30 201 1 187 180
M  V30 202 1 188 186
M  V30 203 9 159 147
M  V30 204 9 152 147
M  V30 205 9 186 147
M  V30 206 9 179 147
M  V30 207 9 172 147
M  V30 208 9 165 147
M  V30 209 1 190 200
M  V30 210 2 190 197
M  V30 211 1 191 190
M  V30 212 2 192 191
M  V30 213 1 192 194
M  V30 214 1 193 191
M  V30 215 2 194 196
M  V30 216 1 195 192
M  V30 217 1 196 197
M  V30 218 1 196 198
M  V30 219 1 197 199
M  V30 220 2 201 195
M  V30 221 1 202 195
M  V30 222 1 203 213
M  V30 223 2 203 210
M  V30 224 1 204 203
M  V30 225 2 205 204
M  V30 226 1 205 207
M  V30 227 1 206 204
M  V30 228 2 207 209
M  V30 229 1 208 205
M  V30 230 1 209 210
M  V30 231 1 209 211
M  V30 232 1 210 212
M  V30 233 2 214 208
M  V30 234 1 215 208
M  V30 235 1 216 214
M  V30 236 1 217 227
M  V30 237 2 217 224
M  V30 238 1 218 217
M  V30 239 2 219 218
M  V30 240 1 219 221
M  V30 241 1 220 218
M  V30 242 2 221 223
M  V30 243 1 222 219
M  V30 244 1 223 224
M  V30 245 1 223 225
M  V30 246 1 224 226
M  V30 247 2 228 222
M  V30 248 1 229 222
M  V30 249 1 230 228
M  V30 250 9 201 189
M  V30 251 9 194 189
M  V30 252 9 228 189
M  V30 253 9 221 189
M  V30 254 9 214 189
M  V30 255 9 207 189
M  V30 256 1 24 117
M  V30 257 1 30 159
M  V30 258 1 9 201
M  V30 259 1 1 75
M  V30 END BOND
M  V30 END CTAB
M  END

$$$$
