
     RDKit          3D

  0  0  0  0  0  0  0  0  0  0999 V3000
M  V30 BEGIN CTAB
M  V30 COUNTS 220 248 0 0 0
M  V30 BEGIN ATOM
M  V30 1 C 5.0108 3.5308 -0.3897 0
M  V30 2 C 5.4099 2.4407 -1.1760 0
M  V30 3 C 4.6792 1.2731 -1.2026 0
M  V30 4 C 3.5120 1.1313 -0.4435 0
M  V30 5 N 2.8076 -0.0830 -0.4448 0
M  V30 6 C 3.5422 -1.2773 -0.4284 0
M  V30 7 C 4.7302 -1.3620 0.3077 0
M  V30 8 C 5.4971 -2.5067 0.2992 0
M  V30 9 C 5.1080 -3.6329 -0.4377 0
M  V30 10 C 3.8954 -3.5659 -1.1313 0
M  V30 11 C 3.1338 -2.4140 -1.1356 0
M  V30 12 C 1.4019 -0.0904 -0.4541 0
M  V30 13 C 0.6739 -1.0888 0.1980 0
M  V30 14 C -0.7078 -1.0842 0.1965 0
M  V30 15 C -1.4279 -0.0813 -0.4575 0
M  V30 16 N -2.8335 -0.0649 -0.4517 0
M  V30 17 C -3.5749 -1.2550 -0.4367 0
M  V30 18 C -3.1689 -2.3946 -1.1407 0
M  V30 19 C -3.9340 -3.5441 -1.1352 0
M  V30 20 C -5.1482 -3.6055 -0.4441 0
M  V30 21 C -5.5367 -2.4756 0.2873 0
M  V30 22 C -4.7660 -1.3333 0.2950 0
M  V30 23 C -3.5293 1.1544 -0.4523 0
M  V30 24 C -4.6941 1.3050 -1.2134 0
M  V30 25 C -5.4141 2.4794 -1.1906 0
M  V30 26 C -5.0059 3.5678 -0.4066 0
M  V30 27 C -3.8201 3.4298 0.3204 0
M  V30 28 C -3.0998 2.2515 0.3018 0
M  V30 29 C -0.6993 0.9131 -1.1162 0
M  V30 30 C 0.6814 0.9087 -1.1144 0
M  V30 31 C 3.0903 2.2312 0.3110 0
M  V30 32 C 3.8216 3.4027 0.3336 0
M  V30 33 H 6.2819 2.5249 -1.8066 0
M  V30 34 H 5.0090 0.4561 -1.8260 0
M  V30 35 H 5.0508 -0.5159 0.8963 0
M  V30 36 H 6.3906 -2.5431 0.9039 0
M  V30 37 H 3.5871 -4.4157 -1.7212 0
M  V30 38 H 2.2253 -2.3767 -1.7179 0
M  V30 39 H 1.2001 -1.8665 0.7313 0
M  V30 40 H -1.2402 -1.8584 0.7287 0
M  V30 41 H -2.2589 -2.3616 -1.7210 0
M  V30 42 H -3.6269 -4.3964 -1.7221 0
M  V30 43 H -6.4326 -2.5072 0.8887 0
M  V30 44 H -5.0858 -0.4844 0.8801 0
M  V30 45 H -5.0304 0.4897 -1.8356 0
M  V30 46 H -6.2844 2.5702 -1.8226 0
M  V30 47 H -3.4954 4.2419 0.9520 0
M  V30 48 H -2.2059 2.1627 0.9013 0
M  V30 49 H -1.2248 1.6877 -1.6539 0
M  V30 50 H 1.2132 1.6801 -1.6507 0
M  V30 51 H 2.1940 2.1496 0.9079 0
M  V30 52 H 3.5028 4.2168 0.9657 0
M  V30 53 Zn 5.3089 6.8485 -0.3971 0 CHG=2
M  V30 54 C 10.1186 6.7370 -0.2459 0
M  V30 55 C 9.3105 5.6093 -0.2824 0
M  V30 56 C 7.9232 5.7640 -0.2853 0
M  V30 57 H 9.7475 4.6234 -0.3118 0
M  V30 58 N 7.3472 6.9784 -0.2519 0
M  V30 59 C 7.0491 4.6106 -0.3135 0
M  V30 60 C 8.1244 8.0519 -0.2062 0
M  V30 61 C 9.5126 7.9841 -0.2015 0
M  V30 62 H 7.6230 9.0086 -0.1665 0
M  V30 63 H 10.0998 8.8879 -0.1641 0
M  V30 64 H 11.1939 6.6461 -0.2492 0
M  V30 65 N 5.7688 4.7054 -0.3160 0
M  V30 66 H 7.5470 3.6412 -0.3066 0
M  V30 67 C 4.1822 7.3368 4.3845 0
M  V30 68 C 3.2479 7.1600 3.3718 0
M  V30 69 C 3.6930 7.0290 2.0585 0
M  V30 70 H 2.1930 7.1260 3.5968 0
M  V30 71 N 4.9952 7.0622 1.7351 0
M  V30 72 C 2.7635 6.8495 0.9534 0
M  V30 73 C 5.8800 7.2362 2.7010 0
M  V30 74 C 5.5236 7.3790 4.0414 0
M  V30 75 H 6.9190 7.2697 2.4066 0
M  V30 76 H 6.2840 7.5237 4.7924 0
M  V30 77 H 3.8698 7.4434 5.4119 0
M  V30 78 N 3.1999 6.6729 -0.2219 0
M  V30 79 H 1.7016 6.8712 1.2077 0
M  V30 80 H 2.5088 6.5551 -0.9550 0
M  V30 81 C 4.7488 11.5602 -1.8166 0
M  V30 82 C 4.9412 10.4874 -2.6788 0
M  V30 83 C 5.0677 9.2071 -2.1439 0
M  V30 84 H 4.9954 10.6417 -3.7456 0
M  V30 85 N 5.0113 8.9680 -0.8222 0
M  V30 86 C 5.2706 8.0490 -3.0031 0
M  V30 87 C 4.8339 9.9962 -0.0080 0
M  V30 88 C 4.6951 11.3079 -0.4548 0
M  V30 89 H 4.8062 9.7743 1.0501 0
M  V30 90 H 4.5575 12.1099 0.2531 0
M  V30 91 H 4.6503 12.5645 -2.1997 0
M  V30 92 N 5.3208 6.8846 -2.4991 0
M  V30 93 H 5.3685 8.2473 -4.0700 0
M  V30 94 H 5.4736 6.1327 -3.1652 0
M  V30 95 Zn -5.4443 -6.9019 -0.4340 0 CHG=2
M  V30 96 C -10.2590 -6.8078 -0.7465 0
M  V30 97 C -9.4597 -5.6744 -0.6942 0
M  V30 98 C -8.0741 -5.8204 -0.6084 0
M  V30 99 H -9.9024 -4.6909 -0.7194 0
M  V30 100 N -7.4914 -7.0314 -0.5795 0
M  V30 101 C -7.2063 -4.6621 -0.5546 0
M  V30 102 C -8.2599 -8.1107 -0.6332 0
M  V30 103 C -9.6461 -8.0520 -0.7146 0
M  V30 104 H -7.7528 -9.0651 -0.6047 0
M  V30 105 H -10.2266 -8.9602 -0.7513 0
M  V30 106 H -11.3330 -6.7236 -0.8104 0
M  V30 107 N -5.9288 -4.7629 -0.5049 0
M  V30 108 H -7.7034 -3.6930 -0.5919 0
M  V30 109 C -5.2872 -7.0244 4.5157 0
M  V30 110 C -4.2074 -6.7101 3.7004 0
M  V30 111 C -4.3784 -6.7277 2.3179 0
M  V30 112 H -3.2483 -6.4625 4.1285 0
M  V30 113 N -5.5540 -7.0237 1.7416 0
M  V30 114 C -3.2735 -6.4530 1.4147 0
M  V30 115 C -6.5767 -7.3262 2.5225 0
M  V30 116 C -6.4931 -7.3451 3.9140 0
M  V30 117 H -7.5064 -7.5748 2.0312 0
M  V30 118 H -7.3557 -7.6096 4.5048 0
M  V30 119 H -5.1863 -7.0258 5.5902 0
M  V30 120 N -3.4478 -6.4958 0.1604 0
M  V30 121 H -2.3132 -6.2295 1.8828 0
M  V30 122 H -2.6311 -6.3121 -0.4126 0
M  V30 123 C -4.5996 -11.6331 -1.5294 0
M  V30 124 C -4.7123 -10.6119 -2.4652 0
M  V30 125 C -4.9228 -9.3096 -2.0182 0
M  V30 126 H -4.6416 -10.8220 -3.5214 0
M  V30 127 N -5.0255 -9.0012 -0.7135 0
M  V30 128 C -5.0448 -8.2006 -2.9541 0
M  V30 129 C -4.9204 -9.9798 0.1708 0
M  V30 130 C -4.7044 -11.3087 -0.1860 0
M  V30 131 H -5.0167 -9.7024 1.2114 0
M  V30 132 H -4.6306 -12.0689 0.5755 0
M  V30 133 H -4.4406 -12.6534 -1.8437 0
M  V30 134 N -5.1552 -7.0143 -2.5155 0
M  V30 135 H -5.0292 -8.4526 -4.0139 0
M  V30 136 H -5.2516 -6.2965 -3.2284 0
M  V30 137 Zn 5.4038 -6.9318 -0.4480 0 CHG=2
M  V30 138 C 10.2202 -6.8320 -0.7344 0
M  V30 139 C 9.4196 -5.6997 -0.6802 0
M  V30 140 C 8.0337 -5.8474 -0.6028 0
M  V30 141 H 9.8616 -4.7156 -0.6973 0
M  V30 142 N 7.4519 -7.0589 -0.5840 0
M  V30 143 C 7.1651 -4.6899 -0.5466 0
M  V30 144 C 8.2217 -8.1372 -0.6397 0
M  V30 145 C 9.6083 -8.0768 -0.7131 0
M  V30 146 H 7.7153 -9.0922 -0.6196 0
M  V30 147 H 10.1898 -8.9843 -0.7518 0
M  V30 148 H 11.2945 -6.7465 -0.7918 0
M  V30 149 N 5.8873 -4.7910 -0.5019 0
M  V30 150 H 7.6620 -3.7205 -0.5772 0
M  V30 151 C 5.2215 -7.0869 4.4999 0
M  V30 152 C 4.1450 -6.7707 3.6809 0
M  V30 153 C 4.3232 -6.7786 2.2993 0
M  V30 154 H 3.1828 -6.5290 4.1057 0
M  V30 155 N 5.5027 -7.0670 1.7272 0
M  V30 156 C 3.2221 -6.5016 1.3921 0
M  V30 157 C 6.5222 -7.3715 2.5115 0
M  V30 158 C 6.4315 -7.3999 3.9023 0
M  V30 159 H 7.4552 -7.6140 2.0235 0
M  V30 160 H 7.2918 -7.6657 4.4960 0
M  V30 161 H 5.1150 -7.0957 5.5737 0
M  V30 162 N 3.4035 -6.5339 0.1386 0
M  V30 163 H 2.2582 -6.2860 1.8566 0
M  V30 164 H 2.5891 -6.3498 -0.4376 0
M  V30 165 C 4.5707 -11.6565 -1.5798 0
M  V30 166 C 4.6849 -10.6284 -2.5078 0
M  V30 167 C 4.8920 -9.3290 -2.0509 0
M  V30 168 H 4.6179 -10.8311 -3.5658 0
M  V30 169 N 4.9899 -9.0298 -0.7436 0
M  V30 170 C 5.0156 -8.2133 -2.9784 0
M  V30 171 C 4.8835 -10.0150 0.1333 0
M  V30 172 C 4.6708 -11.3417 -0.2338 0
M  V30 173 H 4.9760 -9.7450 1.1761 0
M  V30 174 H 4.5957 -12.1074 0.5220 0
M  V30 175 H 4.4142 -12.6747 -1.9020 0
M  V30 176 N 5.1236 -7.0300 -2.5311 0
M  V30 177 H 5.0032 -8.4577 -4.0400 0
M  V30 178 H 5.2212 -6.3071 -3.2386 0
M  V30 179 Zn -5.2648 6.8868 -0.4317 0 CHG=2
M  V30 180 C -10.0751 6.8365 -0.2792 0
M  V30 181 C -9.2813 5.6985 -0.3113 0
M  V30 182 C -7.8921 5.8356 -0.3148 0
M  V30 183 H -9.7307 4.7180 -0.3367 0
M  V30 184 N -7.3009 7.0428 -0.2864 0
M  V30 185 C -7.0324 4.6712 -0.3380 0
M  V30 186 C -8.0645 8.1262 -0.2450 0
M  V30 187 C -9.4534 8.0759 -0.2398 0
M  V30 188 H -7.5510 9.0767 -0.2093 0
M  V30 189 H -10.0291 8.9873 -0.2060 0
M  V30 190 H -11.1515 6.7591 -0.2821 0
M  V30 191 N -5.7511 4.7509 -0.3389 0
M  V30 192 H -7.5419 3.7080 -0.3281 0
M  V30 193 C -4.1295 7.3869 4.3467 0
M  V30 194 C -3.1982 7.1922 3.3347 0
M  V30 195 C -3.6455 7.0598 2.0223 0
M  V30 196 H -2.1436 7.1454 3.5594 0
M  V30 197 N -4.9473 7.1086 1.6993 0
M  V30 198 C -2.7190 6.8615 0.9179 0
M  V30 199 C -5.8292 7.2994 2.6645 0
M  V30 200 C -5.4704 7.4449 4.0040 0
M  V30 201 H -6.8679 7.3449 2.3704 0
M  V30 202 H -6.2285 7.6036 4.7545 0
M  V30 203 H -3.8153 7.4951 5.3735 0
M  V30 204 N -3.1582 6.6849 -0.2564 0
M  V30 205 H -1.6568 6.8695 1.1717 0
M  V30 206 H -2.4691 6.5533 -0.9889 0
M  V30 207 C -4.6423 11.5827 -1.8771 0
M  V30 208 C -4.8494 10.5079 -2.7334 0
M  V30 209 C -4.9930 9.2324 -2.1914 0
M  V30 210 H -4.9018 10.6570 -3.8010 0
M  V30 211 N -4.9396 8.9998 -0.8684 0
M  V30 212 C -5.2117 8.0725 -3.0443 0
M  V30 213 C -4.7481 10.0299 -0.0600 0
M  V30 214 C -4.5917 11.3372 -0.5139 0
M  V30 215 H -4.7232 9.8134 0.9993 0
M  V30 216 H -4.4432 12.1411 0.1896 0
M  V30 217 H -4.5304 12.5834 -2.2657 0
M  V30 218 N -5.2771 6.9116 -2.5339 0
M  V30 219 H -5.3074 8.2663 -4.1122 0
M  V30 220 H -5.4402 6.1582 -3.1959 0
M  V30 END ATOM
M  V30 BEGIN BOND
M  V30 1 2 1 2
M  V30 2 1 2 3
M  V30 3 2 3 4
M  V30 4 1 4 5
M  V30 5 1 5 6
M  V30 6 2 6 7
M  V30 7 1 7 8
M  V30 8 2 8 9
M  V30 9 1 9 10
M  V30 10 2 10 11
M  V30 11 1 5 12
M  V30 12 2 12 13
M  V30 13 1 13 14
M  V30 14 2 14 15
M  V30 15 1 15 16
M  V30 16 1 16 17
M  V30 17 2 17 18
M  V30 18 1 18 19
M  V30 19 2 19 20
M  V30 20 1 20 21
M  V30 21 2 21 22
M  V30 22 1 16 23
M  V30 23 2 23 24
M  V30 24 1 24 25
M  V30 25 2 25 26
M  V30 26 1 26 27
M  V30 27 2 27 28
M  V30 28 1 15 29
M  V30 29 2 29 30
M  V30 30 1 4 31
M  V30 31 2 31 32
M  V30 32 1 32 1
M  V30 33 1 11 6
M  V30 34 1 30 12
M  V30 35 1 22 17
M  V30 36 1 28 23
M  V30 37 1 2 33
M  V30 38 1 3 34
M  V30 39 1 7 35
M  V30 40 1 8 36
M  V30 41 1 10 37
M  V30 42 1 11 38
M  V30 43 1 13 39
M  V30 44 1 14 40
M  V30 45 1 18 41
M  V30 46 1 19 42
M  V30 47 1 21 43
M  V30 48 1 22 44
M  V30 49 1 24 45
M  V30 50 1 25 46
M  V30 51 1 27 47
M  V30 52 1 28 48
M  V30 53 1 29 49
M  V30 54 1 30 50
M  V30 55 1 31 51
M  V30 56 1 32 52
M  V30 57 1 54 64
M  V30 58 2 54 61
M  V30 59 1 55 54
M  V30 60 2 56 55
M  V30 61 1 56 58
M  V30 62 1 57 55
M  V30 63 2 58 60
M  V30 64 1 59 56
M  V30 65 1 60 61
M  V30 66 1 60 62
M  V30 67 1 61 63
M  V30 68 2 65 59
M  V30 69 1 66 59
M  V30 70 1 67 77
M  V30 71 2 67 74
M  V30 72 1 68 67
M  V30 73 2 69 68
M  V30 74 1 69 71
M  V30 75 1 70 68
M  V30 76 2 71 73
M  V30 77 1 72 69
M  V30 78 1 73 74
M  V30 79 1 73 75
M  V30 80 1 74 76
M  V30 81 2 78 72
M  V30 82 1 79 72
M  V30 83 1 80 78
M  V30 84 1 81 91
M  V30 85 2 81 88
M  V30 86 1 82 81
M  V30 87 2 83 82
M  V30 88 1 83 85
M  V30 89 1 84 82
M  V30 90 2 85 87
M  V30 91 1 86 83
M  V30 92 1 87 88
M  V30 93 1 87 89
M  V30 94 1 88 90
M  V30 95 2 92 86
M  V30 96 1 93 86
M  V30 97 1 94 92
M  V30 98 9 65 53
M  V30 99 9 58 53
M  V30 100 9 78 53
M  V30 101 9 71 53
M  V30 102 9 92 53
M  V30 103 9 85 53
M  V30 104 1 96 106
M  V30 105 2 96 103
M  V30 106 1 97 96
M  V30 107 2 98 97
M  V30 108 1 98 100
M  V30 109 1 99 97
M  V30 110 2 100 102
M  V30 111 1 101 98
M  V30 112 1 102 103
M  V30 113 1 102 104
M  V30 114 1 103 105
M  V30 115 2 107 101
M  V30 116 1 108 101
M  V30 117 1 109 119
M  V30 118 2 109 116
M  V30 119 1 110 109
M  V30 120 2 111 110
M  V30 121 1 111 113
M  V30 122 1 112 110
M  V30 123 2 113 115
M  V30 124 1 114 111
M  V30 125 1 115 116
M  V30 126 1 115 117
M  V30 127 1 116 118
M  V30 128 2 120 114
M  V30 129 1 121 114
M  V30 130 1 122 120
M  V30 131 1 123 133
M  V30 132 2 123 130
M  V30 133 1 124 123
M  V30 134 2 125 124
M  V30 135 1 125 127
M  V30 136 1 126 124
M  V30 137 2 127 129
M  V30 138 1 128 125
M  V30 139 1 129 130
M  V30 140 1 129 131
M  V30 141 1 130 132
M  V30 142 2 134 128
M  V30 143 1 135 128
M  V30 144 1 136 134
M  V30 145 9 107 95
M  V30 146 9 100 95
M  V30 147 9 120 95
M  V30 148 9 113 95
M  V30 149 9 134 95
M  V30 150 9 127 95
M  V30 151 1 138 148
M  V30 152 2 138 145
M  V30 153 1 139 138
M  V30 154 2 140 139
M  V30 155 1 140 142
M  V30 156 1 141 139
M  V30 157 2 142 144
M  V30 158 1 143 140
M  V30 159 1 144 145
M  V30 160 1 144 146
M  V30 161 1 145 147
M  V30 162 2 149 143
M  V30 163 1 150 143
M  V30 164 1 151 161
M  V30 165 2 151 158
M  V30 166 1 152 151
M  V30 167 2 153 152
M  V30 168 1 153 155
M  V30 169 1 154 152
M  V30 170 2 155 157
M  V30 171 1 156 153
M  V30 172 1 157 158
M  V30 173 1 157 159
M  V30 174 1 158 160
M  V30 175 2 162 156
M  V30 176 1 163 156
M  V30 177 1 164 162
M  V30 178 1 165 175
M  V30 179 2 165 172
M  V30 180 1 166 165
M  V30 181 2 167 166
M  V30 182 1 167 169
M  V30 183 1 168 166
M  V30 184 2 169 171
M  V30 185 1 170 167
M  V30 186 1 171 172
M  V30 187 1 171 173
M  V30 188 1 172 174
M  V30 189 2 176 170
M  V30 190 1 177 170
M  V30 191 1 178 176
M  V30 192 9 149 137
M  V30 193 9 142 137
M  V30 194 9 176 137
M  V30 195 9 169 137
M  V30 196 9 162 137
M  V30 197 9 155 137
M  V30 198 1 180 190
M  V30 199 2 180 187
M  V30 200 1 181 180
M  V30 201 2 182 181
M  V30 202 1 182 184
M  V30 203 1 183 181
M  V30 204 2 184 186
M  V30 205 1 185 182
M  V30 206 1 186 187
M  V30 207 1 186 188
M  V30 208 1 187 189
M  V30 209 2 191 185
M  V30 210 1 192 185
M  V30 211 1 193 203
M  V30 212 2 193 200
M  V30 213 1 194 193
M  V30 214 2 195 194
M  V30 215 1 195 197
M  V30 216 1 196 194
M  V30 217 2 197 199
M  V30 218 1 198 195
M  V30 219 1 199 200
M  V30 220 1 199 201
M  V30 221 1 200 202
M  V30 222 2 204 198
M  V30 223 1 205 198
M  V30 224 1 206 204
M  V30 225 1 207 217
M  V30 226 2 207 214
M  V30 227 1 208 207
M  V30 228 2 209 208
M  V30 229 1 209 211
M  V30 230 1 210 208
M  V30 231 2 211 213
M  V30 232 1 212 209
M  V30 233 1 213 214
M  V30 234 1 213 215
M  V30 235 1 214 216
M  V30 236 2 218 212
M  V30 237 1 219 212
M  V30 238 1 220 218
M  V30 239 9 191 179
M  V30 240 9 184 179
M  V30 241 9 218 179
M  V30 242 9 211 179
M  V30 243 9 204 179
M  V30 244 9 197 179
M  V30 245 1 1 65
M  V30 246 1 9 149
M  V30 247 1 20 107
M  V30 248 1 26 191
M  V30 END BOND
M  V30 END CTAB
M  END

$$$$
