
     RDKit          3D

  0  0  0  0  0  0  0  0  0  0999 V3000
M  V30 BEGIN CTAB
M  V30 COUNTS 236 268 0 0 0
M  V30 BEGIN ATOM
M  V30 1 C 6.8629 4.9488 0.2553 0
M  V30 2 C 6.6556 3.7542 0.9506 0
M  V30 3 C 5.4668 3.0599 0.8237 0
M  V30 4 C 4.4470 3.5129 -0.0148 0
M  V30 5 C 3.1697 2.7851 -0.1545 0
M  V30 6 C 1.9877 3.4867 -0.2580 0
M  V30 7 C 0.7513 2.8243 -0.3745 0
M  V30 8 C -0.4399 3.5654 -0.5057 0
M  V30 9 C -1.6613 2.9385 -0.6285 0
M  V30 10 C -2.9033 3.7125 -0.8074 0
M  V30 11 C -4.0967 3.3404 -0.1836 0
M  V30 12 C -5.2572 4.0708 -0.3530 0
M  V30 13 C -5.2623 5.2229 -1.1401 0
M  V30 14 C -4.0739 5.5990 -1.7715 0
M  V30 15 C -2.9242 4.8515 -1.6147 0
M  V30 16 C -1.6969 1.5355 -0.5749 0
M  V30 17 C -0.5570 0.7634 -0.4298 0
M  V30 18 C -0.6123 -0.6921 -0.3449 0
M  V30 19 C -1.8107 -1.3771 -0.2436 0
M  V30 20 C -1.8825 -2.7794 -0.1993 0
M  V30 21 C -3.1867 -3.4569 -0.0937 0
M  V30 22 C -3.3396 -4.6109 0.6779 0
M  V30 23 C -4.5508 -5.2701 0.7556 0
M  V30 24 C -5.6705 -4.7813 0.0784 0
M  V30 25 C -5.5359 -3.6067 -0.6649 0
M  V30 26 C -4.3149 -2.9702 -0.7605 0
M  V30 27 C -0.7073 -3.4960 -0.2730 0
M  V30 28 C 0.5398 -2.8455 -0.3568 0
M  V30 29 C 1.7263 -3.5983 -0.4335 0
M  V30 30 C 2.9602 -2.9874 -0.5058 0
M  V30 31 C 4.1817 -3.8104 -0.6095 0
M  V30 32 C 4.1774 -4.9962 -1.3517 0
M  V30 33 C 5.2960 -5.8001 -1.4353 0
M  V30 34 C 6.4872 -5.4271 -0.8106 0
M  V30 35 C 6.5009 -4.2468 -0.0633 0
M  V30 36 C 5.3657 -3.4649 0.0436 0
M  V30 37 C 3.0146 -1.5810 -0.4660 0
M  V30 38 C 1.8785 -0.7894 -0.3834 0
M  V30 39 C 1.9320 0.6740 -0.3120 0
M  V30 40 C 3.1206 1.3785 -0.1923 0
M  V30 41 C 0.7103 1.4037 -0.3698 0
M  V30 42 C 0.6048 -1.4257 -0.3629 0
M  V30 43 C 4.6611 4.7127 -0.7010 0
M  V30 44 C 5.8331 5.4269 -0.5574 0
M  V30 45 H 7.4154 3.3910 1.6274 0
M  V30 46 H 5.3228 2.1599 1.4024 0
M  V30 47 H 1.9879 4.5659 -0.2270 0
M  V30 48 H -0.3779 4.6433 -0.4955 0
M  V30 49 H -4.1074 2.4840 0.4744 0
M  V30 50 H -6.1582 3.7868 0.1709 0
M  V30 51 H -4.0651 6.4639 -2.4180 0
M  V30 52 H -2.0290 5.1499 -2.1378 0
M  V30 53 H -2.6583 1.0604 -0.6866 0
M  V30 54 H -2.7365 -0.8300 -0.1651 0
M  V30 55 H -2.4985 -4.9934 1.2349 0
M  V30 56 H -4.6427 -6.1498 1.3751 0
M  V30 57 H -6.3897 -3.2347 -1.2126 0
M  V30 58 H -4.2237 -2.0989 -1.3918 0
M  V30 59 H -0.7256 -4.5754 -0.2909 0
M  V30 60 H 1.6498 -4.6751 -0.4155 0
M  V30 61 H 3.2887 -5.2811 -1.8935 0
M  V30 62 H 5.2751 -6.7032 -2.0264 0
M  V30 63 H 7.3968 -3.9640 0.4702 0
M  V30 64 H 5.3982 -2.5795 0.6604 0
M  V30 65 H 3.9868 -1.1194 -0.5335 0
M  V30 66 H 4.0585 0.8484 -0.1431 0
M  V30 67 H 3.9051 5.0803 -1.3777 0
M  V30 68 H 5.9851 6.3416 -1.1101 0
M  V30 69 Zn 8.4262 7.8032 0.6319 0 CHG=2
M  V30 70 C 12.8394 5.8053 0.2696 0
M  V30 71 C 11.6536 5.0859 0.2317 0
M  V30 72 C 10.4417 5.7658 0.3534 0
M  V30 73 H 11.6647 4.0145 0.1058 0
M  V30 74 N 10.3899 7.0988 0.5041 0
M  V30 75 C 9.1779 5.0551 0.3027 0
M  V30 76 C 11.5251 7.7811 0.5413 0
M  V30 77 C 12.7742 7.1811 0.4301 0
M  V30 78 H 11.4403 8.8508 0.6702 0
M  V30 79 H 13.6697 7.7803 0.4688 0
M  V30 80 H 13.7913 5.3057 0.1764 0
M  V30 81 N 8.0585 5.6706 0.3312 0
M  V30 82 H 9.2362 3.9712 0.1974 0
M  V30 83 C 8.0408 7.4992 5.5442 0
M  V30 84 C 6.9864 7.7871 4.6869 0
M  V30 85 C 7.2274 7.8377 3.3161 0
M  V30 86 H 5.9973 7.9771 5.0739 0
M  V30 87 N 8.4409 7.6083 2.7908 0
M  V30 88 C 6.1686 8.1697 2.3722 0
M  V30 89 C 9.4410 7.3372 3.6126 0
M  V30 90 C 9.2929 7.2737 4.9956 0
M  V30 91 H 10.4082 7.1704 3.1600 0
M  V30 92 H 10.1441 7.0589 5.6218 0
M  V30 93 H 7.8885 7.4602 6.6118 0
M  V30 94 N 6.4169 8.2079 1.1305 0
M  V30 95 H 5.1889 8.3847 2.7994 0
M  V30 96 H 5.6379 8.4648 0.5321 0
M  V30 97 C 9.4454 12.5959 0.2067 0
M  V30 98 C 9.1700 11.7481 -0.8594 0
M  V30 99 C 8.9099 10.4046 -0.6010 0
M  V30 100 H 9.1558 12.1220 -1.8716 0
M  V30 101 N 8.9176 9.8938 0.6426 0
M  V30 102 C 8.6166 9.4718 -1.6792 0
M  V30 103 C 9.1874 10.7061 1.6514 0
M  V30 104 C 9.4561 12.0625 1.4855 0
M  V30 105 H 9.1972 10.2642 2.6381 0
M  V30 106 H 9.6715 12.6802 2.3429 0
M  V30 107 H 9.6491 13.6425 0.0398 0
M  V30 108 N 8.3151 8.2681 -1.4108 0
M  V30 109 H 8.6709 9.8668 -2.6932 0
M  V30 110 H 8.1376 7.6758 -2.2171 0
M  V30 111 Zn -8.3959 5.4886 -1.9997 0 CHG=2
M  V30 112 C -8.6160 10.2368 -1.1543 0
M  V30 113 C -7.4638 9.4708 -1.0433 0
M  V30 114 C -7.5359 8.0983 -1.2795 0
M  V30 115 H -6.5237 9.9275 -0.7760 0
M  V30 116 N -8.6889 7.4957 -1.6167 0
M  V30 117 C -6.3659 7.2524 -1.1441 0
M  V30 118 C -9.7869 8.2318 -1.7165 0
M  V30 119 C -9.8025 9.6033 -1.4929 0
M  V30 120 H -10.6947 7.7082 -1.9821 0
M  V30 121 H -10.7230 10.1573 -1.5846 0
M  V30 122 H -8.5894 11.3012 -0.9791 0
M  V30 123 N -6.4343 5.9813 -1.2729 0
M  V30 124 H -5.4314 7.7512 -0.8876 0
M  V30 125 C -9.9852 3.6268 2.2735 0
M  V30 126 C -9.4597 2.8703 1.2360 0
M  V30 127 C -9.0445 3.5148 0.0720 0
M  V30 128 H -9.3719 1.7978 1.3222 0
M  V30 129 N -9.1387 4.8448 -0.0789 0
M  V30 130 C -8.4766 2.7782 -1.0471 0
M  V30 131 C -9.6424 5.5611 0.9111 0
M  V30 132 C -10.0787 4.9999 2.1084 0
M  V30 133 H -9.7076 6.6277 0.7520 0
M  V30 134 H -10.4831 5.6268 2.8868 0
M  V30 135 H -10.3156 3.1585 3.1877 0
M  V30 136 N -8.0706 3.4005 -2.0742 0
M  V30 137 H -8.4226 1.6933 -0.9381 0
M  V30 138 H -7.6792 2.8356 -2.8205 0
M  V30 139 C -12.4913 4.9183 -4.7019 0
M  V30 140 C -11.2426 5.2470 -5.2146 0
M  V30 141 C -10.1679 5.3780 -4.3381 0
M  V30 142 H -11.1057 5.4010 -6.2739 0
M  V30 143 N -10.2918 5.1963 -3.0128 0
M  V30 144 C -8.8384 5.7253 -4.8233 0
M  V30 145 C -11.4855 4.8891 -2.5320 0
M  V30 146 C -12.6138 4.7382 -3.3332 0
M  V30 147 H -11.5543 4.7615 -1.4601 0
M  V30 148 H -13.5653 4.4930 -2.8888 0
M  V30 149 H -13.3441 4.8119 -5.3546 0
M  V30 150 N -7.8656 5.7921 -4.0115 0
M  V30 151 H -8.7456 5.9138 -5.8924 0
M  V30 152 H -6.9731 6.0447 -4.4264 0
M  V30 153 Zn 7.9058 -8.3841 -0.7134 0 CHG=2
M  V30 154 C 12.2758 -6.6774 -1.9733 0
M  V30 155 C 11.1534 -5.8827 -1.7889 0
M  V30 156 C 9.9515 -6.4815 -1.4116 0
M  V30 157 H 11.2043 -4.8157 -1.9399 0
M  V30 158 N 9.8482 -7.8069 -1.2244 0
M  V30 159 C 8.7503 -5.6904 -1.2214 0
M  V30 160 C 10.9237 -8.5610 -1.3989 0
M  V30 161 C 12.1596 -8.0442 -1.7705 0
M  V30 162 H 10.8007 -9.6216 -1.2310 0
M  V30 163 H 13.0061 -8.6999 -1.8973 0
M  V30 164 H 13.2181 -6.2417 -2.2676 0
M  V30 165 N 7.6217 -6.2317 -0.9662 0
M  V30 166 H 8.8548 -4.6121 -1.3477 0
M  V30 167 C 8.4928 -8.0771 4.1796 0
M  V30 168 C 7.2758 -8.2860 3.5434 0
M  V30 169 C 7.2442 -8.3426 2.1521 0
M  V30 170 H 6.3694 -8.4116 4.1151 0
M  V30 171 N 8.3465 -8.1921 1.4018 0
M  V30 172 C 6.0033 -8.5950 1.4313 0
M  V30 173 C 9.5023 -7.9954 2.0135 0
M  V30 174 C 9.6282 -7.9326 3.3988 0
M  V30 175 H 10.3730 -7.8910 1.3817 0
M  V30 176 H 10.5968 -7.7810 3.8479 0
M  V30 177 H 8.5521 -8.0363 5.2563 0
M  V30 178 N 6.0061 -8.6446 0.1656 0
M  V30 179 H 5.1110 -8.7426 2.0401 0
M  V30 180 H 5.1113 -8.8422 -0.2716 0
M  V30 181 C 8.5200 -13.2376 -1.2372 0
M  V30 182 C 8.1020 -12.3786 -2.2466 0
M  V30 183 C 7.9804 -11.0198 -1.9667 0
M  V30 184 H 7.8733 -12.7557 -3.2315 0
M  V30 185 N 8.2555 -10.5045 -0.7557 0
M  V30 186 C 7.5471 -10.0752 -2.9860 0
M  V30 187 C 8.6591 -11.3281 0.1978 0
M  V30 188 C 8.8054 -12.6999 0.0076 0
M  V30 189 H 8.8831 -10.8834 1.1575 0
M  V30 190 H 9.1393 -13.3262 0.8196 0
M  V30 191 H 8.6224 -14.2959 -1.4217 0
M  V30 192 N 7.3782 -8.8531 -2.6862 0
M  V30 193 H 7.3829 -10.4779 -3.9849 0
M  V30 194 H 7.0883 -8.2547 -3.4545 0
M  V30 195 Zn -8.8636 -4.6474 0.5314 0 CHG=2
M  V30 196 C -9.5825 -9.3708 -0.2437 0
M  V30 197 C -8.3374 -8.7577 -0.2375 0
M  V30 198 C -8.2562 -7.3871 0.0083 0
M  V30 199 H -7.4424 -9.3299 -0.4253 0
M  V30 200 N -9.3508 -6.6421 0.2393 0
M  V30 201 C -6.9802 -6.6977 -0.0004 0
M  V30 202 C -10.5370 -7.2345 0.2357 0
M  V30 203 C -10.7052 -8.5934 0.0002 0
M  V30 204 H -11.3915 -6.6020 0.4332 0
M  V30 205 H -11.6922 -9.0275 0.0096 0
M  V30 206 H -9.6752 -10.4290 -0.4335 0
M  V30 207 N -6.9120 -5.4254 0.1141 0
M  V30 208 H -6.0930 -7.3110 -0.1542 0
M  V30 209 C -8.3465 -4.9202 5.4336 0
M  V30 210 C -7.8982 -3.8616 4.6538 0
M  V30 211 C -8.1254 -3.8939 3.2799 0
M  V30 212 H -7.3886 -3.0229 5.1029 0
M  V30 213 N -8.7501 -4.9185 2.6769 0
M  V30 214 C -7.7140 -2.7986 2.4183 0
M  V30 215 C -9.1743 -5.9230 3.4247 0
M  V30 216 C -9.0013 -5.9681 4.8067 0
M  V30 217 H -9.6812 -6.7284 2.9124 0
M  V30 218 H -9.3752 -6.8072 5.3716 0
M  V30 219 H -8.1922 -4.9225 6.5017 0
M  V30 220 N -8.0029 -2.8177 1.1833 0
M  V30 221 H -7.1694 -1.9843 2.8981 0
M  V30 222 H -7.6772 -2.0245 0.6413 0
M  V30 223 C -13.5174 -3.0474 0.1910 0
M  V30 224 C -12.6712 -3.2428 -0.8937 0
M  V30 225 C -11.3632 -3.6600 -0.6599 0
M  V30 226 H -13.0201 -3.0806 -1.9020 0
M  V30 227 N -10.8880 -3.8853 0.5764 0
M  V30 228 C -10.4308 -3.8797 -1.7581 0
M  V30 229 C -11.6996 -3.6985 1.6039 0
M  V30 230 C -13.0198 -3.2773 1.4638 0
M  V30 231 H -11.2899 -3.8954 2.5845 0
M  V30 232 H -13.6413 -3.1444 2.3350 0
M  V30 233 H -14.5384 -2.7307 0.0432 0
M  V30 234 N -9.2253 -4.1812 -1.5058 0
M  V30 235 H -10.8280 -3.7644 -2.7666 0
M  V30 236 H -8.6346 -4.3384 -2.3179 0
M  V30 END ATOM
M  V30 BEGIN BOND
M  V30 1 2 1 2
M  V30 2 1 2 3
M  V30 3 2 3 4
M  V30 4 1 4 5
M  V30 5 2 5 6
M  V30 6 1 6 7
M  V30 7 2 7 8
M  V30 8 1 8 9
M  V30 9 1 9 10
M  V30 10 2 10 11
M  V30 11 1 11 12
M  V30 12 2 12 13
M  V30 13 1 13 14
M  V30 14 2 14 15
M  V30 15 2 9 16
M  V30 16 1 16 17
M  V30 17 1 17 18
M  V30 18 2 18 19
M  V30 19 1 19 20
M  V30 20 1 20 21
M  V30 21 2 21 22
M  V30 22 1 22 23
M  V30 23 2 23 24
M  V30 24 1 24 25
M  V30 25 2 25 26
M  V30 26 2 20 27
M  V30 27 1 27 28
M  V30 28 1 28 29
M  V30 29 2 29 30
M  V30 30 1 30 31
M  V30 31 2 31 32
M  V30 32 1 32 33
M  V30 33 2 33 34
M  V30 34 1 34 35
M  V30 35 2 35 36
M  V30 36 1 30 37
M  V30 37 2 37 38
M  V30 38 1 38 39
M  V30 39 2 39 40
M  V30 40 1 39 41
M  V30 41 1 38 42
M  V30 42 1 4 43
M  V30 43 2 43 44
M  V30 44 1 44 1
M  V30 45 1 40 5
M  V30 46 1 41 7
M  V30 47 1 15 10
M  V30 48 2 41 17
M  V30 49 1 42 18
M  V30 50 1 26 21
M  V30 51 2 42 28
M  V30 52 1 36 31
M  V30 53 1 2 45
M  V30 54 1 3 46
M  V30 55 1 6 47
M  V30 56 1 8 48
M  V30 57 1 11 49
M  V30 58 1 12 50
M  V30 59 1 14 51
M  V30 60 1 15 52
M  V30 61 1 16 53
M  V30 62 1 19 54
M  V30 63 1 22 55
M  V30 64 1 23 56
M  V30 65 1 25 57
M  V30 66 1 26 58
M  V30 67 1 27 59
M  V30 68 1 29 60
M  V30 69 1 32 61
M  V30 70 1 33 62
M  V30 71 1 35 63
M  V30 72 1 36 64
M  V30 73 1 37 65
M  V30 74 1 40 66
M  V30 75 1 43 67
M  V30 76 1 44 68
M  V30 77 1 70 80
M  V30 78 2 70 77
M  V30 79 1 71 70
M  V30 80 2 72 71
M  V30 81 1 72 74
M  V30 82 1 73 71
M  V30 83 2 74 76
M  V30 84 1 75 72
M  V30 85 1 76 77
M  V30 86 1 76 78
M  V30 87 1 77 79
M  V30 88 2 81 75
M  V30 89 1 82 75
M  V30 90 1 83 93
M  V30 91 2 83 90
M  V30 92 1 84 83
M  V30 93 2 85 84
M  V30 94 1 85 87
M  V30 95 1 86 84
M  V30 96 2 87 89
M  V30 97 1 88 85
M  V30 98 1 89 90
M  V30 99 1 89 91
M  V30 100 1 90 92
M  V30 101 2 94 88
M  V30 102 1 95 88
M  V30 103 1 96 94
M  V30 104 1 97 107
M  V30 105 2 97 104
M  V30 106 1 98 97
M  V30 107 2 99 98
M  V30 108 1 99 101
M  V30 109 1 100 98
M  V30 110 2 101 103
M  V30 111 1 102 99
M  V30 112 1 103 104
M  V30 113 1 103 105
M  V30 114 1 104 106
M  V30 115 2 108 102
M  V30 116 1 109 102
M  V30 117 1 110 108
M  V30 118 9 81 69
M  V30 119 9 74 69
M  V30 120 9 94 69
M  V30 121 9 87 69
M  V30 122 9 108 69
M  V30 123 9 101 69
M  V30 124 1 112 122
M  V30 125 2 112 119
M  V30 126 1 113 112
M  V30 127 2 114 113
M  V30 128 1 114 116
M  V30 129 1 115 113
M  V30 130 2 116 118
M  V30 131 1 117 114
M  V30 132 1 118 119
M  V30 133 1 118 120
M  V30 134 1 119 121
M  V30 135 2 123 117
M  V30 136 1 124 117
M  V30 137 1 125 135
M  V30 138 2 125 132
M  V30 139 1 126 125
M  V30 140 2 127 126
M  V30 141 1 127 129
M  V30 142 1 128 126
M  V30 143 2 129 131
M  V30 144 1 130 127
M  V30 145 1 131 132
M  V30 146 1 131 133
M  V30 147 1 132 134
M  V30 148 2 136 130
M  V30 149 1 137 130
M  V30 150 1 138 136
M  V30 151 1 139 149
M  V30 152 2 139 146
M  V30 153 1 140 139
M  V30 154 2 141 140
M  V30 155 1 141 143
M  V30 156 1 142 140
M  V30 157 2 143 145
M  V30 158 1 144 141
M  V30 159 1 145 146
M  V30 160 1 145 147
M  V30 161 1 146 148
M  V30 162 2 150 144
M  V30 163 1 151 144
M  V30 164 1 152 150
M  V30 165 9 123 111
M  V30 166 9 116 111
M  V30 167 9 136 111
M  V30 168 9 129 111
M  V30 169 9 150 111
M  V30 170 9 143 111
M  V30 171 1 154 164
M  V30 172 2 154 161
M  V30 173 1 155 154
M  V30 174 2 156 155
M  V30 175 1 156 158
M  V30 176 1 157 155
M  V30 177 2 158 160
M  V30 178 1 159 156
M  V30 179 1 160 161
M  V30 180 1 160 162
M  V30 181 1 161 163
M  V30 182 2 165 159
M  V30 183 1 166 159
M  V30 184 1 167 177
M  V30 185 2 167 174
M  V30 186 1 168 167
M  V30 187 2 169 168
M  V30 188 1 169 171
M  V30 189 1 170 168
M  V30 190 2 171 173
M  V30 191 1 172 169
M  V30 192 1 173 174
M  V30 193 1 173 175
M  V30 194 1 174 176
M  V30 195 2 178 172
M  V30 196 1 179 172
M  V30 197 1 180 178
M  V30 198 1 181 191
M  V30 199 2 181 188
M  V30 200 1 182 181
M  V30 201 2 183 182
M  V30 202 1 183 185
M  V30 203 1 184 182
M  V30 204 2 185 187
M  V30 205 1 186 183
M  V30 206 1 187 188
M  V30 207 1 187 189
M  V30 208 1 188 190
M  V30 209 2 192 186
M  V30 210 1 193 186
M  V30 211 1 194 192
M  V30 212 9 165 153
M  V30 213 9 158 153
M  V30 214 9 192 153
M  V30 215 9 185 153
M  V30 216 9 178 153
M  V30 217 9 171 153
M  V30 218 1 196 206
M  V30 219 2 196 203
M  V30 220 1 197 196
M  V30 221 2 198 197
M  V30 222 1 198 200
M  V30 223 1 199 197
M  V30 224 2 200 202
M  V30 225 1 201 198
M  V30 226 1 202 203
M  V30 227 1 202 204
M  V30 228 1 203 205
M  V30 229 2 207 201
M  V30 230 1 208 201
M  V30 231 1 209 219
M  V30 232 2 209 216
M  V30 233 1 210 209
M  V30 234 2 211 210
M  V30 235 1 211 213
M  V30 236 1 212 210
M  V30 237 2 213 215
M  V30 238 1 214 211
M  V30 239 1 215 216
M  V30 240 1 215 217
M  V30 241 1 216 218
M  V30 242 2 220 214
M  V30 243 1 221 214
M  V30 244 1 222 220
M  V30 245 1 223 233
M  V30 246 2 223 230
M  V30 247 1 224 223
M  V30 248 2 225 224
M  V30 249 1 225 227
M  V30 250 1 226 224
M  V30 251 2 227 229
M  V30 252 1 228 225
M  V30 253 1 229 230
M  V30 254 1 229 231
M  V30 255 1 230 232
M  V30 256 2 234 228
M  V30 257 1 235 228
M  V30 258 1 236 234
M  V30 259 9 207 195
M  V30 260 9 200 195
M  V30 261 9 234 195
M  V30 262 9 227 195
M  V30 263 9 220 195
M  V30 264 9 213 195
M  V30 265 1 1 81
M  V30 266 1 34 165
M  V30 267 1 24 207
M  V30 268 1 13 123
M  V30 END BOND
M  V30 END CTAB
M  END

$$$$
