
     RDKit          3D

  0  0  0  0  0  0  0  0  0  0999 V3000
M  V30 BEGIN CTAB
M  V30 COUNTS 226 255 0 0 0
M  V30 BEGIN ATOM
M  V30 1 C -4.8519 -6.1104 1.0671 0
M  V30 2 C -3.5862 -6.5629 1.4499 0
M  V30 3 C -2.4514 -5.8393 1.1344 0
M  V30 4 C -2.5245 -4.6458 0.4132 0
M  V30 5 C -1.3047 -3.9125 0.0098 0
M  V30 6 C -0.1844 -4.6115 -0.4364 0
M  V30 7 C 0.9636 -3.9377 -0.8487 0
M  V30 8 C 2.1555 -4.7018 -1.2787 0
M  V30 9 C 3.4363 -4.3488 -0.8476 0
M  V30 10 C 4.5484 -5.0909 -1.2004 0
M  V30 11 C 4.4217 -6.2319 -1.9939 0
M  V30 12 C 3.1458 -6.5741 -2.4526 0
M  V30 13 C 2.0405 -5.8221 -2.1032 0
M  V30 14 C 0.9696 -2.5439 -0.8303 0
M  V30 15 C -0.1295 -1.8095 -0.3776 0
M  V30 16 C -0.1015 -0.3257 -0.3474 0
M  V30 17 C -1.2832 0.4214 -0.3747 0
M  V30 18 C -1.2694 1.8131 -0.3038 0
M  V30 19 C -2.5078 2.6166 -0.2537 0
M  V30 20 C -2.5999 3.7030 0.6217 0
M  V30 21 C -3.7268 4.4983 0.6703 0
M  V30 22 C -4.8242 4.2236 -0.1470 0
M  V30 23 C -4.7394 3.1387 -1.0255 0
M  V30 24 C -3.6011 2.3559 -1.0791 0
M  V30 25 C -0.0449 2.4726 -0.2749 0
M  V30 26 C 1.1533 1.7646 -0.2898 0
M  V30 27 C 2.4252 2.5135 -0.3180 0
M  V30 28 C 2.5341 3.6739 -1.0916 0
M  V30 29 C 3.6980 4.4136 -1.1232 0
M  V30 30 C 4.8223 3.9996 -0.4062 0
M  V30 31 C 4.7218 2.8432 0.3728 0
M  V30 32 C 3.5421 2.1233 0.4213 0
M  V30 33 C 1.1091 0.3714 -0.2904 0
M  V30 34 C -1.2548 -2.5192 0.0491 0
M  V30 35 C -3.7960 -4.1851 0.0613 0
M  V30 36 C -4.9369 -4.8916 0.3911 0
M  V30 37 H -3.4931 -7.4730 2.0240 0
M  V30 38 H -1.4915 -6.2074 1.4629 0
M  V30 39 H -0.2050 -5.6904 -0.4639 0
M  V30 40 H 3.5592 -3.4981 -0.1937 0
M  V30 41 H 5.5213 -4.8224 -0.8166 0
M  V30 42 H 3.0240 -7.4201 -3.1126 0
M  V30 43 H 1.0726 -6.1055 -2.4876 0
M  V30 44 H 1.8393 -2.0327 -1.2140 0
M  V30 45 H -2.2360 -0.0807 -0.4400 0
M  V30 46 H -1.7803 3.9111 1.2932 0
M  V30 47 H -3.7875 5.3140 1.3748 0
M  V30 48 H -5.5555 2.9352 -1.7033 0
M  V30 49 H -3.5529 1.5442 -1.7891 0
M  V30 50 H -0.0263 3.5515 -0.2436 0
M  V30 51 H 1.6981 3.9857 -1.6990 0
M  V30 52 H 3.7681 5.2957 -1.7416 0
M  V30 53 H 5.5608 2.5325 0.9783 0
M  V30 54 H 3.4832 1.2536 1.0583 0
M  V30 55 H 2.0401 -0.1727 -0.2610 0
M  V30 56 H -2.1022 -1.9882 0.4551 0
M  V30 57 H -3.8904 -3.2752 -0.5125 0
M  V30 58 H -5.9074 -4.5344 0.0798 0
M  V30 59 Zn 6.3539 6.9024 -0.3804 0 CHG=2
M  V30 60 C 10.7395 4.9522 -1.1276 0
M  V30 61 C 9.5745 4.2137 -0.9796 0
M  V30 62 C 8.3678 4.8809 -0.7697 0
M  V30 63 H 9.5959 3.1362 -1.0280 0
M  V30 64 N 8.3011 6.2203 -0.7095 0
M  V30 65 C 7.1244 4.1482 -0.6275 0
M  V30 66 C 9.4163 6.9214 -0.8516 0
M  V30 67 C 10.6593 6.3349 -1.0608 0
M  V30 68 H 9.3210 7.9962 -0.7917 0
M  V30 69 H 11.5389 6.9493 -1.1671 0
M  V30 70 H 11.6872 4.4627 -1.2906 0
M  V30 71 N 6.0008 4.7448 -0.5103 0
M  V30 72 H 7.1954 3.0605 -0.6683 0
M  V30 73 C 6.5724 6.7976 4.5520 0
M  V30 74 C 5.4115 7.0085 3.8188 0
M  V30 75 C 5.4846 7.0164 2.4279 0
M  V30 76 H 4.4682 7.1719 4.3166 0
M  V30 77 N 6.6357 6.8159 1.7672 0
M  V30 78 C 4.3089 7.2714 1.6084 0
M  V30 79 C 7.7379 6.6197 2.4711 0
M  V30 80 C 7.7591 6.6045 3.8636 0
M  V30 81 H 8.6511 6.4766 1.9111 0
M  V30 82 H 8.6881 6.4512 4.3893 0
M  V30 83 H 6.5506 6.7930 5.6309 0
M  V30 84 N 4.4036 7.2723 0.3451 0
M  V30 85 H 3.3797 7.4660 2.1449 0
M  V30 86 H 3.5503 7.4771 -0.1649 0
M  V30 87 C 7.2699 11.6591 -1.2005 0
M  V30 88 C 6.8875 10.7476 -2.1778 0
M  V30 89 C 6.6542 9.4248 -1.8100 0
M  V30 90 H 6.7725 11.0573 -3.2053 0
M  V30 91 N 6.7891 8.9925 -0.5436 0
M  V30 92 C 6.2492 8.4288 -2.7905 0
M  V30 93 C 7.1568 9.8657 0.3800 0
M  V30 94 C 7.4064 11.2076 0.1025 0
M  V30 95 H 7.2648 9.4870 1.3869 0
M  V30 96 H 7.7054 11.8771 0.8934 0
M  V30 97 H 7.4585 12.6912 -1.4534 0
M  V30 98 N 5.9827 7.2444 -2.4173 0
M  V30 99 H 6.1896 8.7607 -3.8265 0
M  V30 100 H 5.7190 6.6055 -3.1621 0
M  V30 101 Zn 7.5147 -6.5454 -3.1164 0 CHG=2
M  V30 102 C 7.5417 -11.3535 -2.6746 0
M  V30 103 C 6.4452 -10.5479 -2.3989 0
M  V30 104 C 6.5670 -9.1646 -2.5323 0
M  V30 105 H 5.5098 -10.9843 -2.0850 0
M  V30 106 N 7.7164 -8.5897 -2.9240 0
M  V30 107 C 5.4546 -8.2845 -2.2282 0
M  V30 108 C 8.7618 -9.3632 -3.1804 0
M  V30 109 C 8.7256 -10.7482 -3.0686 0
M  V30 110 H 9.6699 -8.8610 -3.4831 0
M  V30 111 H 9.6052 -11.3330 -3.2862 0
M  V30 112 H 7.4751 -12.4266 -2.5818 0
M  V30 113 N 5.5506 -7.0101 -2.2961 0
M  V30 114 H 4.5347 -8.7709 -1.9027 0
M  V30 115 C 9.6595 -5.1831 1.1058 0
M  V30 116 C 9.1256 -4.3013 0.1747 0
M  V30 117 C 8.5269 -4.8142 -0.9732 0
M  V30 118 H 9.1749 -3.2350 0.3333 0
M  V30 119 N 8.4463 -6.1320 -1.2117 0
M  V30 120 C 7.9491 -3.9405 -1.9867 0
M  V30 121 C 8.9576 -6.9671 -0.3240 0
M  V30 122 C 9.5740 -6.5420 0.8510 0
M  V30 123 H 8.8819 -8.0210 -0.5504 0
M  V30 124 H 9.9788 -7.2636 1.5425 0
M  V30 125 H 10.1326 -4.8177 2.0042 0
M  V30 126 N 7.3684 -4.4404 -2.9942 0
M  V30 127 H 8.0460 -2.8673 -1.8145 0
M  V30 128 H 6.9858 -3.7843 -3.6676 0
M  V30 129 C 11.4536 -5.9799 -6.0604 0
M  V30 130 C 10.1544 -6.1942 -6.5038 0
M  V30 131 C 9.1373 -6.3422 -5.5634 0
M  V30 132 H 9.9345 -6.2465 -7.5590 0
M  V30 133 N 9.3640 -6.2842 -4.2401 0
M  V30 134 C 7.7594 -6.5733 -5.9748 0
M  V30 135 C 10.6054 -6.0877 -3.8265 0
M  V30 136 C 11.6824 -5.9291 -4.6945 0
M  V30 137 H 10.7585 -6.0598 -2.7562 0
M  V30 138 H 12.6756 -5.7757 -4.3034 0
M  V30 139 H 12.2636 -5.8614 -6.7638 0
M  V30 140 N 6.8401 -6.6502 -5.1030 0
M  V30 141 H 7.5828 -6.6706 -7.0455 0
M  V30 142 H 5.9085 -6.8200 -5.4713 0
M  V30 143 Zn -7.9696 -6.2368 2.0942 0 CHG=2
M  V30 144 C -8.4123 -10.9858 1.2780 0
M  V30 145 C -7.2407 -10.2669 1.0837 0
M  V30 146 C -7.2277 -8.8997 1.3612 0
M  V30 147 H -6.3515 -10.7569 0.7190 0
M  V30 148 N -8.3190 -8.2591 1.8124 0
M  V30 149 C -6.0319 -8.1050 1.1488 0
M  V30 150 C -9.4338 -8.9513 1.9999 0
M  V30 151 C -9.5314 -10.3147 1.7476 0
M  V30 152 H -10.2864 -8.3999 2.3711 0
M  V30 153 H -10.4621 -10.8326 1.9166 0
M  V30 154 H -8.4515 -12.0437 1.0685 0
M  V30 155 N -6.0239 -6.8372 1.3177 0
M  V30 156 H -5.1526 -8.6438 0.7954 0
M  V30 157 C -6.6049 -6.5603 6.8255 0
M  V30 158 C -6.4745 -5.4190 6.0443 0
M  V30 159 C -6.9100 -5.4544 4.7219 0
M  V30 160 H -6.0492 -4.5159 6.4542 0
M  V30 161 N -7.4414 -6.5562 4.1685 0
M  V30 162 C -6.8350 -4.2792 3.8678 0
M  V30 163 C -7.5669 -7.6379 4.9185 0
M  V30 164 C -7.1675 -7.6892 6.2523 0
M  V30 165 H -8.0110 -8.5044 4.4498 0
M  V30 166 H -7.3009 -8.5947 6.8227 0
M  V30 167 H -6.2818 -6.5641 7.8551 0
M  V30 168 N -7.2517 -4.3345 2.6720 0
M  V30 169 H -6.4207 -3.3779 4.3210 0
M  V30 170 H -7.1823 -3.4741 2.1385 0
M  V30 171 C -12.7069 -4.9608 2.6325 0
M  V30 172 C -12.0440 -5.0403 1.4139 0
M  V30 173 C -10.6991 -5.4017 1.4017 0
M  V30 174 H -12.5605 -4.8277 0.4905 0
M  V30 175 N -10.0163 -5.6817 2.5250 0
M  V30 176 C -9.9547 -5.4989 0.1540 0
M  V30 177 C -10.6558 -5.6090 3.6807 0
M  V30 178 C -11.9977 -5.2510 3.7871 0
M  V30 179 H -10.0833 -5.8499 4.5654 0
M  V30 180 H -12.4719 -5.2094 4.7548 0
M  V30 181 H -13.7494 -4.6849 2.6758 0
M  V30 182 N -8.7108 -5.7485 0.1789 0
M  V30 183 H -10.5208 -5.3438 -0.7642 0
M  V30 184 H -8.2628 -5.8182 -0.7305 0
M  V30 185 Zn -6.2661 7.1914 -0.1483 0 CHG=2
M  V30 186 C -10.7417 5.3519 0.1677 0
M  V30 187 C -9.5889 4.5874 0.0607 0
M  V30 188 C -8.3501 5.2272 0.0191 0
M  V30 189 H -9.6447 3.5113 0.0088 0
M  V30 190 N -8.2406 6.5639 0.0777 0
M  V30 191 C -7.1204 4.4645 -0.0661 0
M  V30 192 C -9.3442 7.2892 0.1864 0
M  V30 193 C -10.6165 6.7311 0.2367 0
M  V30 194 H -9.2136 8.3606 0.2406 0
M  V30 195 H -11.4840 7.3651 0.3269 0
M  V30 196 H -11.7136 4.8845 0.1984 0
M  V30 197 N -5.9705 5.0229 -0.0559 0
M  V30 198 H -7.2282 3.3797 -0.1046 0
M  V30 199 C -5.2852 8.4078 4.5190 0
M  V30 200 C -4.3818 8.5211 3.4696 0
M  V30 201 C -4.7692 8.1023 2.1991 0
M  V30 202 H -3.3976 8.9326 3.6321 0
M  V30 203 N -5.9852 7.5898 1.9509 0
M  V30 204 C -3.8684 8.2010 1.0580 0
M  V30 205 C -6.8406 7.4840 2.9534 0
M  V30 206 C -6.5380 7.8783 4.2548 0
M  V30 207 H -7.8121 7.0730 2.7185 0
M  V30 208 H -7.2736 7.7768 5.0368 0
M  V30 209 H -5.0178 8.7292 5.5139 0
M  V30 210 N -4.2382 7.7719 -0.0749 0
M  V30 211 H -2.8920 8.6487 1.2476 0
M  V30 212 H -3.5710 7.8722 -0.8332 0
M  V30 213 C -7.4554 11.7230 -1.7026 0
M  V30 214 C -7.2498 10.6280 -2.5332 0
M  V30 215 C -6.9217 9.4008 -1.9617 0
M  V30 216 H -7.3417 10.7242 -3.6042 0
M  V30 217 N -6.7977 9.2326 -0.6335 0
M  V30 218 C -6.6917 8.2246 -2.7872 0
M  V30 219 C -7.0008 10.2794 0.1503 0
M  V30 220 C -7.3294 11.5429 -0.3343 0
M  V30 221 H -6.9040 10.1120 1.2144 0
M  V30 222 H -7.4854 12.3616 0.3502 0
M  V30 223 H -7.7097 12.6875 -2.1148 0
M  V30 224 N -6.3481 7.1270 -2.2489 0
M  V30 225 H -6.8275 8.3507 -3.8608 0
M  V30 226 H -6.2081 6.3551 -2.8944 0
M  V30 END ATOM
M  V30 BEGIN BOND
M  V30 1 2 1 2
M  V30 2 1 2 3
M  V30 3 2 3 4
M  V30 4 1 4 5
M  V30 5 2 5 6
M  V30 6 1 6 7
M  V30 7 1 7 8
M  V30 8 2 8 9
M  V30 9 1 9 10
M  V30 10 2 10 11
M  V30 11 1 11 12
M  V30 12 2 12 13
M  V30 13 2 7 14
M  V30 14 1 14 15
M  V30 15 1 15 16
M  V30 16 2 16 17
M  V30 17 1 17 18
M  V30 18 1 18 19
M  V30 19 2 19 20
M  V30 20 1 20 21
M  V30 21 2 21 22
M  V30 22 1 22 23
M  V30 23 2 23 24
M  V30 24 2 18 25
M  V30 25 1 25 26
M  V30 26 1 26 27
M  V30 27 2 27 28
M  V30 28 1 28 29
M  V30 29 2 29 30
M  V30 30 1 30 31
M  V30 31 2 31 32
M  V30 32 2 26 33
M  V30 33 2 15 34
M  V30 34 1 4 35
M  V30 35 2 35 36
M  V30 36 1 36 1
M  V30 37 1 34 5
M  V30 38 1 13 8
M  V30 39 1 33 16
M  V30 40 1 24 19
M  V30 41 1 32 27
M  V30 42 1 2 37
M  V30 43 1 3 38
M  V30 44 1 6 39
M  V30 45 1 9 40
M  V30 46 1 10 41
M  V30 47 1 12 42
M  V30 48 1 13 43
M  V30 49 1 14 44
M  V30 50 1 17 45
M  V30 51 1 20 46
M  V30 52 1 21 47
M  V30 53 1 23 48
M  V30 54 1 24 49
M  V30 55 1 25 50
M  V30 56 1 28 51
M  V30 57 1 29 52
M  V30 58 1 31 53
M  V30 59 1 32 54
M  V30 60 1 33 55
M  V30 61 1 34 56
M  V30 62 1 35 57
M  V30 63 1 36 58
M  V30 64 1 60 70
M  V30 65 2 60 67
M  V30 66 1 61 60
M  V30 67 2 62 61
M  V30 68 1 62 64
M  V30 69 1 63 61
M  V30 70 2 64 66
M  V30 71 1 65 62
M  V30 72 1 66 67
M  V30 73 1 66 68
M  V30 74 1 67 69
M  V30 75 2 71 65
M  V30 76 1 72 65
M  V30 77 1 73 83
M  V30 78 2 73 80
M  V30 79 1 74 73
M  V30 80 2 75 74
M  V30 81 1 75 77
M  V30 82 1 76 74
M  V30 83 2 77 79
M  V30 84 1 78 75
M  V30 85 1 79 80
M  V30 86 1 79 81
M  V30 87 1 80 82
M  V30 88 2 84 78
M  V30 89 1 85 78
M  V30 90 1 86 84
M  V30 91 1 87 97
M  V30 92 2 87 94
M  V30 93 1 88 87
M  V30 94 2 89 88
M  V30 95 1 89 91
M  V30 96 1 90 88
M  V30 97 2 91 93
M  V30 98 1 92 89
M  V30 99 1 93 94
M  V30 100 1 93 95
M  V30 101 1 94 96
M  V30 102 2 98 92
M  V30 103 1 99 92
M  V30 104 1 100 98
M  V30 105 9 71 59
M  V30 106 9 64 59
M  V30 107 9 84 59
M  V30 108 9 77 59
M  V30 109 9 98 59
M  V30 110 9 91 59
M  V30 111 1 102 112
M  V30 112 2 102 109
M  V30 113 1 103 102
M  V30 114 2 104 103
M  V30 115 1 104 106
M  V30 116 1 105 103
M  V30 117 2 106 108
M  V30 118 1 107 104
M  V30 119 1 108 109
M  V30 120 1 108 110
M  V30 121 1 109 111
M  V30 122 2 113 107
M  V30 123 1 114 107
M  V30 124 1 115 125
M  V30 125 2 115 122
M  V30 126 1 116 115
M  V30 127 2 117 116
M  V30 128 1 117 119
M  V30 129 1 118 116
M  V30 130 2 119 121
M  V30 131 1 120 117
M  V30 132 1 121 122
M  V30 133 1 121 123
M  V30 134 1 122 124
M  V30 135 2 126 120
M  V30 136 1 127 120
M  V30 137 1 128 126
M  V30 138 1 129 139
M  V30 139 2 129 136
M  V30 140 1 130 129
M  V30 141 2 131 130
M  V30 142 1 131 133
M  V30 143 1 132 130
M  V30 144 2 133 135
M  V30 145 1 134 131
M  V30 146 1 135 136
M  V30 147 1 135 137
M  V30 148 1 136 138
M  V30 149 2 140 134
M  V30 150 1 141 134
M  V30 151 1 142 140
M  V30 152 9 113 101
M  V30 153 9 106 101
M  V30 154 9 126 101
M  V30 155 9 119 101
M  V30 156 9 140 101
M  V30 157 9 133 101
M  V30 158 1 144 154
M  V30 159 2 144 151
M  V30 160 1 145 144
M  V30 161 2 146 145
M  V30 162 1 146 148
M  V30 163 1 147 145
M  V30 164 2 148 150
M  V30 165 1 149 146
M  V30 166 1 150 151
M  V30 167 1 150 152
M  V30 168 1 151 153
M  V30 169 2 155 149
M  V30 170 1 156 149
M  V30 171 1 157 167
M  V30 172 2 157 164
M  V30 173 1 158 157
M  V30 174 2 159 158
M  V30 175 1 159 161
M  V30 176 1 160 158
M  V30 177 2 161 163
M  V30 178 1 162 159
M  V30 179 1 163 164
M  V30 180 1 163 165
M  V30 181 1 164 166
M  V30 182 2 168 162
M  V30 183 1 169 162
M  V30 184 1 170 168
M  V30 185 1 171 181
M  V30 186 2 171 178
M  V30 187 1 172 171
M  V30 188 2 173 172
M  V30 189 1 173 175
M  V30 190 1 174 172
M  V30 191 2 175 177
M  V30 192 1 176 173
M  V30 193 1 177 178
M  V30 194 1 177 179
M  V30 195 1 178 180
M  V30 196 2 182 176
M  V30 197 1 183 176
M  V30 198 1 184 182
M  V30 199 9 155 143
M  V30 200 9 148 143
M  V30 201 9 182 143
M  V30 202 9 175 143
M  V30 203 9 168 143
M  V30 204 9 161 143
M  V30 205 1 186 196
M  V30 206 2 186 193
M  V30 207 1 187 186
M  V30 208 2 188 187
M  V30 209 1 188 190
M  V30 210 1 189 187
M  V30 211 2 190 192
M  V30 212 1 191 188
M  V30 213 1 192 193
M  V30 214 1 192 194
M  V30 215 1 193 195
M  V30 216 2 197 191
M  V30 217 1 198 191
M  V30 218 1 199 209
M  V30 219 2 199 206
M  V30 220 1 200 199
M  V30 221 2 201 200
M  V30 222 1 201 203
M  V30 223 1 202 200
M  V30 224 2 203 205
M  V30 225 1 204 201
M  V30 226 1 205 206
M  V30 227 1 205 207
M  V30 228 1 206 208
M  V30 229 2 210 204
M  V30 230 1 211 204
M  V30 231 1 212 210
M  V30 232 1 213 223
M  V30 233 2 213 220
M  V30 234 1 214 213
M  V30 235 2 215 214
M  V30 236 1 215 217
M  V30 237 1 216 214
M  V30 238 2 217 219
M  V30 239 1 218 215
M  V30 240 1 219 220
M  V30 241 1 219 221
M  V30 242 1 220 222
M  V30 243 2 224 218
M  V30 244 1 225 218
M  V30 245 1 226 224
M  V30 246 9 197 185
M  V30 247 9 190 185
M  V30 248 9 224 185
M  V30 249 9 217 185
M  V30 250 9 210 185
M  V30 251 9 203 185
M  V30 252 1 30 71
M  V30 253 1 11 113
M  V30 254 1 1 155
M  V30 255 1 22 197
M  V30 END BOND
M  V30 END CTAB
M  END

$$$$
