
     RDKit          3D

  0  0  0  0  0  0  0  0  0  0999 V3000
M  V30 BEGIN CTAB
M  V30 COUNTS 236 268 0 0 0
M  V30 BEGIN ATOM
M  V30 1 C 5.8705 5.2720 -0.8787 0
M  V30 2 C 5.7848 4.1841 -0.0087 0
M  V30 3 C 4.6503 3.3954 0.0240 0
M  V30 4 C 3.5643 3.6527 -0.8144 0
M  V30 5 C 2.3190 2.8657 -0.7427 0
M  V30 6 C 1.1015 3.5074 -0.7800 0
M  V30 7 C -0.1041 2.7869 -0.6893 0
M  V30 8 C -1.3338 3.4724 -0.7055 0
M  V30 9 C -2.5303 2.7975 -0.6073 0
M  V30 10 C -3.8063 3.5391 -0.6073 0
M  V30 11 C -4.8689 3.1752 0.2225 0
M  V30 12 C -6.0567 3.8823 0.2248 0
M  V30 13 C -6.2219 5.0046 -0.5922 0
M  V30 14 C -5.1536 5.3904 -1.4054 0
M  V30 15 C -3.9819 4.6618 -1.4230 0
M  V30 16 C -2.4963 1.3947 -0.5004 0
M  V30 17 C -1.3150 0.6702 -0.4939 0
M  V30 18 C -1.2882 -0.7907 -0.3994 0
M  V30 19 C -2.4443 -1.5494 -0.3194 0
M  V30 20 C -2.4279 -2.9517 -0.2228 0
M  V30 21 C -3.6762 -3.7322 -0.1399 0
M  V30 22 C -3.7583 -4.8498 0.6941 0
M  V30 23 C -4.8898 -5.6398 0.7295 0
M  V30 24 C -5.9997 -5.3250 -0.0586 0
M  V30 25 C -5.9458 -4.1783 -0.8535 0
M  V30 26 C -4.8006 -3.4075 -0.9023 0
M  V30 27 C -1.2105 -3.5954 -0.2196 0
M  V30 28 C -0.0046 -2.8746 -0.3086 0
M  V30 29 C 1.2246 -3.5615 -0.3119 0
M  V30 30 C 2.4223 -2.8848 -0.3855 0
M  V30 31 C 3.7004 -3.6224 -0.3777 0
M  V30 32 C 3.8250 -4.8506 -1.0356 0
M  V30 33 C 5.0047 -5.5664 -1.0114 0
M  V30 34 C 6.1313 -5.0640 -0.3559 0
M  V30 35 C 6.0151 -3.8390 0.3082 0
M  V30 36 C 4.8209 -3.1436 0.3050 0
M  V30 37 C 2.3888 -1.4798 -0.4621 0
M  V30 38 C 1.2075 -0.7556 -0.4705 0
M  V30 39 C 1.1811 0.7055 -0.5612 0
M  V30 40 C 2.3377 1.4655 -0.6258 0
M  V30 41 C -0.0783 1.3696 -0.5815 0
M  V30 42 C -0.0293 -1.4557 -0.3930 0
M  V30 43 C 3.6732 4.7179 -1.7108 0
M  V30 44 C 4.7980 5.5161 -1.7420 0
M  V30 45 H 6.5920 3.9990 0.6839 0
M  V30 46 H 4.5891 2.5892 0.7399 0
M  V30 47 H 1.0548 4.5839 -0.8508 0
M  V30 48 H -1.3161 4.5503 -0.7685 0
M  V30 49 H -4.7568 2.3382 0.8955 0
M  V30 50 H -6.8489 3.5934 0.9009 0
M  V30 51 H -5.2755 6.2419 -2.0576 0
M  V30 52 H -3.1926 4.9550 -2.0980 0
M  V30 53 H -3.4438 0.8831 -0.4469 0
M  V30 54 H -3.4082 -1.0664 -0.3090 0
M  V30 55 H -2.9240 -5.1004 1.3310 0
M  V30 56 H -4.9295 -6.4890 1.3957 0
M  V30 57 H -6.7933 -3.9335 -1.4763 0
M  V30 58 H -4.7637 -2.5604 -1.5709 0
M  V30 59 H -1.1632 -4.6733 -0.1781 0
M  V30 60 H 1.2075 -4.6379 -0.2282 0
M  V30 61 H 2.9882 -5.2396 -1.5950 0
M  V30 62 H 5.0843 -6.5027 -1.5426 0
M  V30 63 H 6.8548 -3.4552 0.8700 0
M  V30 64 H 4.7513 -2.2210 0.8617 0
M  V30 65 H 3.3345 -0.9691 -0.5463 0
M  V30 66 H 3.3037 0.9865 -0.6149 0
M  V30 67 H 2.8675 4.9170 -2.4005 0
M  V30 68 H 4.8632 6.3184 -2.4621 0
M  V30 69 Zn 9.1019 5.6698 -1.0810 0 CHG=2
M  V30 70 C 8.8774 10.5007 -0.9301 0
M  V30 71 C 7.7720 9.6618 -0.9344 0
M  V30 72 C 7.9677 8.2807 -0.9392 0
M  V30 73 H 6.7729 10.0691 -0.9338 0
M  V30 74 N 9.1967 7.7381 -0.9434 0
M  V30 75 C 6.8432 7.3660 -0.9203 0
M  V30 76 C 10.2486 8.5444 -0.9326 0
M  V30 77 C 10.1414 9.9301 -0.9239 0
M  V30 78 H 11.2194 8.0691 -0.9267 0
M  V30 79 H 11.0288 10.5426 -0.9136 0
M  V30 80 H 8.7560 11.5730 -0.9294 0
M  V30 81 N 7.0025 6.0974 -0.8681 0
M  V30 82 H 5.8513 7.8180 -0.9200 0
M  V30 83 C 9.9212 4.5006 3.6295 0
M  V30 84 C 9.6672 3.5761 2.6243 0
M  V30 85 C 9.4454 4.0344 1.3284 0
M  V30 86 H 9.6440 2.5191 2.8405 0
M  V30 87 N 9.4650 5.3392 1.0157 0
M  V30 88 C 9.1746 3.1136 0.2314 0
M  V30 89 C 9.7084 6.2150 1.9753 0
M  V30 90 C 9.9431 5.8454 3.2980 0
M  V30 91 H 9.7224 7.2565 1.6876 0
M  V30 92 H 10.1412 6.5984 4.0440 0
M  V30 93 H 10.1003 4.1774 4.6434 0
M  V30 94 N 8.9373 3.5650 -0.9272 0
M  V30 95 H 9.1853 2.0507 0.4775 0
M  V30 96 H 8.7529 2.8776 -1.6509 0
M  V30 97 C 13.6832 5.1476 -2.8350 0
M  V30 98 C 12.5481 5.3010 -3.6215 0
M  V30 99 C 11.3107 5.4408 -2.9978 0
M  V30 100 H 12.6214 5.3129 -4.6981 0
M  V30 101 N 11.1719 5.4336 -1.6614 0
M  V30 102 C 10.0895 5.6042 -3.7749 0
M  V30 103 C 12.2582 5.2931 -0.9194 0
M  V30 104 C 13.5339 5.1455 -1.4572 0
M  V30 105 H 12.1144 5.3023 0.1524 0
M  V30 106 H 14.3869 5.0373 -0.8063 0
M  V30 107 H 14.6564 5.0374 -3.2880 0
M  V30 108 N 8.9690 5.6811 -3.1845 0
M  V30 109 H 10.2049 5.6511 -4.8574 0
M  V30 110 H 8.1649 5.7979 -3.7946 0
M  V30 111 Zn 7.7118 -7.9212 -0.0498 0 CHG=2
M  V30 112 C 12.0670 -5.9842 -0.9942 0
M  V30 113 C 10.8894 -5.2539 -0.9303 0
M  V30 114 C 9.6947 -5.9125 -0.6377 0
M  V30 115 H 10.8925 -4.1901 -1.1097 0
M  V30 116 N 9.6536 -7.2359 -0.4193 0
M  V30 117 C 8.4374 -5.1908 -0.5738 0
M  V30 118 C 10.7814 -7.9288 -0.4790 0
M  V30 119 C 12.0131 -7.3500 -0.7602 0
M  V30 120 H 10.7052 -8.9900 -0.2894 0
M  V30 121 H 12.9036 -7.9568 -0.7945 0
M  V30 122 H 13.0051 -5.5015 -1.2207 0
M  V30 123 N 7.3238 -5.7919 -0.3953 0
M  V30 124 H 8.4912 -4.1121 -0.7270 0
M  V30 125 C 7.9073 -7.4943 4.8669 0
M  V30 126 C 6.7585 -7.7930 4.1454 0
M  V30 127 C 6.8359 -7.8694 2.7569 0
M  V30 128 H 5.8221 -7.9727 4.6503 0
M  V30 129 N 7.9789 -7.6532 2.0878 0
M  V30 130 C 5.6730 -8.2173 1.9504 0
M  V30 131 C 9.0694 -7.3705 2.7807 0
M  V30 132 C 9.0861 -7.2827 4.1701 0
M  V30 133 H 9.9764 -7.2147 2.2138 0
M  V30 134 H 10.0060 -7.0613 4.6876 0
M  V30 135 H 7.8826 -7.4371 5.9441 0
M  V30 136 N 5.7766 -8.2873 0.6899 0
M  V30 137 H 4.7487 -8.4157 2.4929 0
M  V30 138 H 4.9330 -8.5532 0.1911 0
M  V30 139 C 8.7432 -12.7149 -0.4203 0
M  V30 140 C 8.3324 -11.9092 -1.4756 0
M  V30 141 C 8.0788 -10.5613 -1.2343 0
M  V30 142 H 8.2101 -12.3189 -2.4664 0
M  V30 143 N 8.2182 -10.0070 -0.0171 0
M  V30 144 C 7.6495 -9.6710 -2.3028 0
M  V30 145 C 8.6147 -10.7798 0.9810 0
M  V30 146 C 8.8885 -12.1369 0.8307 0
M  V30 147 H 8.7273 -10.3037 1.9452 0
M  V30 148 H 9.2109 -12.7209 1.6781 0
M  V30 149 H 8.9464 -13.7635 -0.5745 0
M  V30 150 N 7.3723 -8.4591 -2.0447 0
M  V30 151 H 7.5848 -10.1035 -3.3007 0
M  V30 152 H 7.0916 -7.8991 -2.8447 0
M  V30 153 Zn -9.2223 -5.5776 0.0896 0 CHG=2
M  V30 154 C -9.2530 -10.4048 -0.3393 0
M  V30 155 C -8.1021 -9.6308 -0.2888 0
M  V30 156 C -8.2196 -8.2471 -0.1575 0
M  V30 157 H -7.1281 -10.0901 -0.3540 0
M  V30 158 N -9.4164 -7.6413 -0.0806 0
M  V30 159 C -7.0466 -7.3947 -0.1166 0
M  V30 160 C -10.5119 -8.3858 -0.1277 0
M  V30 161 C -10.4830 -9.7696 -0.2546 0
M  V30 162 H -11.4541 -7.8604 -0.0564 0
M  V30 163 H -11.4032 -10.3309 -0.2855 0
M  V30 164 H -9.1922 -11.4773 -0.4417 0
M  V30 165 N -7.1498 -6.1206 -0.0812 0
M  V30 166 H -6.0787 -7.8941 -0.1582 0
M  V30 167 C -9.1018 -5.4763 5.0327 0
M  V30 168 C -8.7863 -4.3983 4.2156 0
M  V30 169 C -8.8735 -4.5518 2.8341 0
M  V30 170 H -8.4854 -3.4535 4.6415 0
M  V30 171 N -9.2390 -5.7088 2.2607 0
M  V30 172 C -8.5951 -3.4461 1.9296 0
M  V30 173 C -9.5394 -6.7309 3.0439 0
M  V30 174 C -9.4905 -6.6638 4.4344 0
M  V30 175 H -9.8413 -7.6452 2.5530 0
M  V30 176 H -9.7560 -7.5244 5.0275 0
M  V30 177 H -9.0513 -5.3878 6.1070 0
M  V30 178 N -8.7154 -3.6041 0.6785 0
M  V30 179 H -8.2994 -2.5048 2.3945 0
M  V30 180 H -8.5164 -2.7900 0.1063 0
M  V30 181 C -13.9479 -4.4843 -0.7333 0
M  V30 182 C -12.9828 -4.6064 -1.7254 0
M  V30 183 C -11.6748 -4.9104 -1.3572 0
M  V30 184 H -13.2395 -4.4702 -2.7647 0
M  V30 185 N -11.3098 -5.0942 -0.0770 0
M  V30 186 C -10.6217 -5.0491 -2.3543 0
M  V30 187 C -12.2349 -4.9798 0.8615 0
M  V30 188 C -13.5649 -4.6744 0.5849 0
M  V30 189 H -11.9114 -5.1418 1.8803 0
M  V30 190 H -14.2805 -4.5955 1.3878 0
M  V30 191 H -14.9710 -4.2517 -0.9862 0
M  V30 192 N -9.4267 -5.2543 -1.9815 0
M  V30 193 H -10.9227 -4.9629 -3.3980 0
M  V30 194 H -8.7476 -5.3560 -2.7307 0
M  V30 195 Zn -7.7119 7.9098 -0.4961 0 CHG=2
M  V30 196 C -12.1763 6.0169 -0.7925 0
M  V30 197 C -11.0131 5.2616 -0.7598 0
M  V30 198 C -9.7830 5.9107 -0.6498 0
M  V30 199 H -11.0550 4.1855 -0.8242 0
M  V30 200 N -9.6944 7.2480 -0.5787 0
M  V30 201 C -8.5394 5.1628 -0.6188 0
M  V30 202 C -10.8086 7.9647 -0.6057 0
M  V30 203 C -12.0730 7.3971 -0.7087 0
M  V30 204 H -10.6932 9.0370 -0.5362 0
M  V30 205 H -12.9504 8.0236 -0.7230 0
M  V30 206 H -13.1413 5.5420 -0.8802 0
M  V30 207 N -7.4040 5.7490 -0.6228 0
M  V30 208 H -8.6274 4.0756 -0.6282 0
M  V30 209 C -7.3064 7.8965 4.4212 0
M  V30 210 C -6.2484 8.0950 3.5435 0
M  V30 211 C -6.4966 8.0720 2.1734 0
M  V30 212 H -5.2509 8.2735 3.9140 0
M  V30 213 N -7.7205 7.8529 1.6689 0
M  V30 214 C -5.4341 8.3139 1.2056 0
M  V30 215 C -8.7242 7.6669 2.5097 0
M  V30 216 C -8.5695 7.6826 3.8932 0
M  V30 217 H -9.6992 7.5069 2.0713 0
M  V30 218 H -9.4236 7.5378 4.5353 0
M  V30 219 H -7.1486 7.9176 5.4885 0
M  V30 220 N -5.6915 8.2889 -0.0342 0
M  V30 221 H -4.4449 8.5215 1.6138 0
M  V30 222 H -4.9104 8.4860 -0.6524 0
M  V30 223 C -8.6492 12.6732 -1.2368 0
M  V30 224 C -8.3867 11.7523 -2.2442 0
M  V30 225 C -8.1471 10.4252 -1.8970 0
M  V30 226 H -8.3669 12.0583 -3.2789 0
M  V30 227 N -8.1622 9.9988 -0.6219 0
M  V30 228 C -7.8689 9.4176 -2.9104 0
M  V30 229 C -8.4191 10.8803 0.3307 0
M  V30 230 C -8.6677 12.2264 0.0748 0
M  V30 231 H -8.4349 10.5049 1.3445 0
M  V30 232 H -8.8735 12.9029 0.8890 0
M  V30 233 H -8.8369 13.7094 -1.4730 0
M  V30 234 N -7.5940 8.2279 -2.5621 0
M  V30 235 H -7.9108 9.7461 -3.9483 0
M  V30 236 H -7.4236 7.5810 -3.3270 0
M  V30 END ATOM
M  V30 BEGIN BOND
M  V30 1 2 1 2
M  V30 2 1 2 3
M  V30 3 2 3 4
M  V30 4 1 4 5
M  V30 5 2 5 6
M  V30 6 1 6 7
M  V30 7 2 7 8
M  V30 8 1 8 9
M  V30 9 1 9 10
M  V30 10 2 10 11
M  V30 11 1 11 12
M  V30 12 2 12 13
M  V30 13 1 13 14
M  V30 14 2 14 15
M  V30 15 2 9 16
M  V30 16 1 16 17
M  V30 17 1 17 18
M  V30 18 2 18 19
M  V30 19 1 19 20
M  V30 20 1 20 21
M  V30 21 2 21 22
M  V30 22 1 22 23
M  V30 23 2 23 24
M  V30 24 1 24 25
M  V30 25 2 25 26
M  V30 26 2 20 27
M  V30 27 1 27 28
M  V30 28 1 28 29
M  V30 29 2 29 30
M  V30 30 1 30 31
M  V30 31 2 31 32
M  V30 32 1 32 33
M  V30 33 2 33 34
M  V30 34 1 34 35
M  V30 35 2 35 36
M  V30 36 1 30 37
M  V30 37 2 37 38
M  V30 38 1 38 39
M  V30 39 2 39 40
M  V30 40 1 39 41
M  V30 41 1 38 42
M  V30 42 1 4 43
M  V30 43 2 43 44
M  V30 44 1 44 1
M  V30 45 1 40 5
M  V30 46 1 41 7
M  V30 47 1 15 10
M  V30 48 2 41 17
M  V30 49 1 42 18
M  V30 50 1 26 21
M  V30 51 2 42 28
M  V30 52 1 36 31
M  V30 53 1 2 45
M  V30 54 1 3 46
M  V30 55 1 6 47
M  V30 56 1 8 48
M  V30 57 1 11 49
M  V30 58 1 12 50
M  V30 59 1 14 51
M  V30 60 1 15 52
M  V30 61 1 16 53
M  V30 62 1 19 54
M  V30 63 1 22 55
M  V30 64 1 23 56
M  V30 65 1 25 57
M  V30 66 1 26 58
M  V30 67 1 27 59
M  V30 68 1 29 60
M  V30 69 1 32 61
M  V30 70 1 33 62
M  V30 71 1 35 63
M  V30 72 1 36 64
M  V30 73 1 37 65
M  V30 74 1 40 66
M  V30 75 1 43 67
M  V30 76 1 44 68
M  V30 77 1 70 80
M  V30 78 2 70 77
M  V30 79 1 71 70
M  V30 80 2 72 71
M  V30 81 1 72 74
M  V30 82 1 73 71
M  V30 83 2 74 76
M  V30 84 1 75 72
M  V30 85 1 76 77
M  V30 86 1 76 78
M  V30 87 1 77 79
M  V30 88 2 81 75
M  V30 89 1 82 75
M  V30 90 1 83 93
M  V30 91 2 83 90
M  V30 92 1 84 83
M  V30 93 2 85 84
M  V30 94 1 85 87
M  V30 95 1 86 84
M  V30 96 2 87 89
M  V30 97 1 88 85
M  V30 98 1 89 90
M  V30 99 1 89 91
M  V30 100 1 90 92
M  V30 101 2 94 88
M  V30 102 1 95 88
M  V30 103 1 96 94
M  V30 104 1 97 107
M  V30 105 2 97 104
M  V30 106 1 98 97
M  V30 107 2 99 98
M  V30 108 1 99 101
M  V30 109 1 100 98
M  V30 110 2 101 103
M  V30 111 1 102 99
M  V30 112 1 103 104
M  V30 113 1 103 105
M  V30 114 1 104 106
M  V30 115 2 108 102
M  V30 116 1 109 102
M  V30 117 1 110 108
M  V30 118 9 81 69
M  V30 119 9 74 69
M  V30 120 9 108 69
M  V30 121 9 101 69
M  V30 122 9 94 69
M  V30 123 9 87 69
M  V30 124 1 112 122
M  V30 125 2 112 119
M  V30 126 1 113 112
M  V30 127 2 114 113
M  V30 128 1 114 116
M  V30 129 1 115 113
M  V30 130 2 116 118
M  V30 131 1 117 114
M  V30 132 1 118 119
M  V30 133 1 118 120
M  V30 134 1 119 121
M  V30 135 2 123 117
M  V30 136 1 124 117
M  V30 137 1 125 135
M  V30 138 2 125 132
M  V30 139 1 126 125
M  V30 140 2 127 126
M  V30 141 1 127 129
M  V30 142 1 128 126
M  V30 143 2 129 131
M  V30 144 1 130 127
M  V30 145 1 131 132
M  V30 146 1 131 133
M  V30 147 1 132 134
M  V30 148 2 136 130
M  V30 149 1 137 130
M  V30 150 1 138 136
M  V30 151 1 139 149
M  V30 152 2 139 146
M  V30 153 1 140 139
M  V30 154 2 141 140
M  V30 155 1 141 143
M  V30 156 1 142 140
M  V30 157 2 143 145
M  V30 158 1 144 141
M  V30 159 1 145 146
M  V30 160 1 145 147
M  V30 161 1 146 148
M  V30 162 2 150 144
M  V30 163 1 151 144
M  V30 164 1 152 150
M  V30 165 9 123 111
M  V30 166 9 116 111
M  V30 167 9 150 111
M  V30 168 9 143 111
M  V30 169 9 136 111
M  V30 170 9 129 111
M  V30 171 1 154 164
M  V30 172 2 154 161
M  V30 173 1 155 154
M  V30 174 2 156 155
M  V30 175 1 156 158
M  V30 176 1 157 155
M  V30 177 2 158 160
M  V30 178 1 159 156
M  V30 179 1 160 161
M  V30 180 1 160 162
M  V30 181 1 161 163
M  V30 182 2 165 159
M  V30 183 1 166 159
M  V30 184 1 167 177
M  V30 185 2 167 174
M  V30 186 1 168 167
M  V30 187 2 169 168
M  V30 188 1 169 171
M  V30 189 1 170 168
M  V30 190 2 171 173
M  V30 191 1 172 169
M  V30 192 1 173 174
M  V30 193 1 173 175
M  V30 194 1 174 176
M  V30 195 2 178 172
M  V30 196 1 179 172
M  V30 197 1 180 178
M  V30 198 1 181 191
M  V30 199 2 181 188
M  V30 200 1 182 181
M  V30 201 2 183 182
M  V30 202 1 183 185
M  V30 203 1 184 182
M  V30 204 2 185 187
M  V30 205 1 186 183
M  V30 206 1 187 188
M  V30 207 1 187 189
M  V30 208 1 188 190
M  V30 209 2 192 186
M  V30 210 1 193 186
M  V30 211 1 194 192
M  V30 212 9 165 153
M  V30 213 9 158 153
M  V30 214 9 192 153
M  V30 215 9 185 153
M  V30 216 9 178 153
M  V30 217 9 171 153
M  V30 218 1 196 206
M  V30 219 2 196 203
M  V30 220 1 197 196
M  V30 221 2 198 197
M  V30 222 1 198 200
M  V30 223 1 199 197
M  V30 224 2 200 202
M  V30 225 1 201 198
M  V30 226 1 202 203
M  V30 227 1 202 204
M  V30 228 1 203 205
M  V30 229 2 207 201
M  V30 230 1 208 201
M  V30 231 1 209 219
M  V30 232 2 209 216
M  V30 233 1 210 209
M  V30 234 2 211 210
M  V30 235 1 211 213
M  V30 236 1 212 210
M  V30 237 2 213 215
M  V30 238 1 214 211
M  V30 239 1 215 216
M  V30 240 1 215 217
M  V30 241 1 216 218
M  V30 242 2 220 214
M  V30 243 1 221 214
M  V30 244 1 222 220
M  V30 245 1 223 233
M  V30 246 2 223 230
M  V30 247 1 224 223
M  V30 248 2 225 224
M  V30 249 1 225 227
M  V30 250 1 226 224
M  V30 251 2 227 229
M  V30 252 1 228 225
M  V30 253 1 229 230
M  V30 254 1 229 231
M  V30 255 1 230 232
M  V30 256 2 234 228
M  V30 257 1 235 228
M  V30 258 1 236 234
M  V30 259 9 207 195
M  V30 260 9 200 195
M  V30 261 9 234 195
M  V30 262 9 227 195
M  V30 263 9 220 195
M  V30 264 9 213 195
M  V30 265 1 1 81
M  V30 266 1 34 123
M  V30 267 1 24 165
M  V30 268 1 13 207
M  V30 END BOND
M  V30 END CTAB
M  END

$$$$
