
     RDKit          3D

  0  0  0  0  0  0  0  0  0  0999 V3000
M  V30 BEGIN CTAB
M  V30 COUNTS 226 255 0 0 0
M  V30 BEGIN ATOM
M  V30 1 C -5.1069 -4.7644 -0.3392 0
M  V30 2 C -4.0975 -5.2252 0.5095 0
M  V30 3 C -2.8678 -4.5940 0.5508 0
M  V30 4 C -2.5893 -3.4919 -0.2586 0
M  V30 5 C -1.2759 -2.8156 -0.2294 0
M  V30 6 C -0.0903 -3.5421 -0.1574 0
M  V30 7 C 1.1379 -2.8841 -0.1500 0
M  V30 8 C 2.3983 -3.6503 -0.0550 0
M  V30 9 C 3.4481 -3.2146 0.7572 0
M  V30 10 C 4.6221 -3.9351 0.8681 0
M  V30 11 C 4.7868 -5.1375 0.1794 0
M  V30 12 C 3.7450 -5.5746 -0.6428 0
M  V30 13 C 2.5799 -4.8408 -0.7602 0
M  V30 14 C 1.1638 -1.4926 -0.2253 0
M  V30 15 C -0.0041 -0.7279 -0.2884 0
M  V30 16 C 0.0315 0.7549 -0.3588 0
M  V30 17 C -1.1373 1.5021 -0.5242 0
M  V30 18 C -1.1321 2.8941 -0.5733 0
M  V30 19 C -2.4059 3.6306 -0.7061 0
M  V30 20 C -2.6572 4.7802 0.0440 0
M  V30 21 C -3.8543 5.4632 -0.0650 0
M  V30 22 C -4.8566 5.0085 -0.9246 0
M  V30 23 C -4.6162 3.8529 -1.6708 0
M  V30 24 C -3.4105 3.1873 -1.5704 0
M  V30 25 C 0.0817 3.5695 -0.4856 0
M  V30 26 C 1.2716 2.8603 -0.3395 0
M  V30 27 C 2.5631 3.5753 -0.2719 0
M  V30 28 C 2.8244 4.6617 -1.1079 0
M  V30 29 C 4.0237 5.3448 -1.0442 0
M  V30 30 C 5.0208 4.9554 -0.1472 0
M  V30 31 C 4.7711 3.8631 0.6842 0
M  V30 32 C 3.5630 3.1943 0.6253 0
M  V30 33 C 1.2286 1.4695 -0.2629 0
M  V30 34 C -1.2145 -1.4248 -0.2818 0
M  V30 35 C -3.6054 -3.0367 -1.1040 0
M  V30 36 C -4.8425 -3.6485 -1.1360 0
M  V30 37 H -4.2889 -6.0613 1.1654 0
M  V30 38 H -2.1162 -4.9580 1.2342 0
M  V30 39 H -0.1228 -4.6196 -0.1084 0
M  V30 40 H 3.3278 -2.3137 1.3408 0
M  V30 41 H 5.4013 -3.6002 1.5368 0
M  V30 42 H 3.8629 -6.4811 -1.2175 0
M  V30 43 H 1.8037 -5.1947 -1.4209 0
M  V30 44 H 2.1295 -1.0147 -0.2604 0
M  V30 45 H -2.0930 1.0095 -0.5999 0
M  V30 46 H -1.9112 5.1394 0.7362 0
M  V30 47 H -4.0292 6.3351 0.5476 0
M  V30 48 H -5.3691 3.5139 -2.3674 0
M  V30 49 H -3.2305 2.3254 -2.1957 0
M  V30 50 H 0.1007 4.6474 -0.5331 0
M  V30 51 H 2.0844 4.9713 -1.8296 0
M  V30 52 H 4.2047 6.1702 -1.7165 0
M  V30 53 H 5.5115 3.5778 1.4172 0
M  V30 54 H 3.3784 2.3822 1.3131 0
M  V30 55 H 2.1651 0.9482 -0.1471 0
M  V30 56 H -2.1504 -0.8902 -0.2940 0
M  V30 57 H -3.4093 -2.2105 -1.7712 0
M  V30 58 H -5.6041 -3.3021 -1.8195 0
M  V30 59 Zn 8.0462 -5.3860 0.0198 0 CHG=2
M  V30 60 C 8.1319 -10.0788 1.1040 0
M  V30 61 C 6.9727 -9.3288 0.9551 0
M  V30 62 C 7.0760 -7.9693 0.6617 0
M  V30 63 H 6.0035 -9.7895 1.0663 0
M  V30 64 N 8.2680 -7.3641 0.5172 0
M  V30 65 C 5.8937 -7.1409 0.5184 0
M  V30 66 C 9.3715 -8.0849 0.6616 0
M  V30 67 C 9.3558 -9.4432 0.9562 0
M  V30 68 H 10.3089 -7.5598 0.5418 0
M  V30 69 H 10.2820 -9.9848 1.0654 0
M  V30 70 H 8.0815 -11.1327 1.3306 0
M  V30 71 N 5.9704 -5.8776 0.3289 0
M  V30 72 H 4.9332 -7.6469 0.6143 0
M  V30 73 C 8.7535 -3.3952 4.4882 0
M  V30 74 C 8.4483 -2.6701 3.3438 0
M  V30 75 C 8.2703 -3.3488 2.1408 0
M  V30 76 H 8.3491 -1.5962 3.3826 0
M  V30 77 N 8.3852 -4.6819 2.0472 0
M  V30 78 C 7.9404 -2.6445 0.9096 0
M  V30 79 C 8.6790 -5.3683 3.1374 0
M  V30 80 C 8.8714 -4.7713 4.3825 0
M  V30 81 H 8.7703 -6.4390 3.0265 0
M  V30 82 H 9.1101 -5.3756 5.2432 0
M  V30 83 H 8.8971 -2.8995 5.4359 0
M  V30 84 N 7.7396 -3.2914 -0.1585 0
M  V30 85 H 7.8747 -1.5561 0.9786 0
M  V30 86 H 7.5060 -2.7519 -0.9853 0
M  V30 87 C 12.5999 -4.8271 -1.8270 0
M  V30 88 C 11.4858 -5.2104 -2.5636 0
M  V30 89 C 10.2565 -5.3210 -1.9176 0
M  V30 90 H 11.5694 -5.4222 -3.6184 0
M  V30 91 N 10.1058 -5.0722 -0.6055 0
M  V30 92 C 9.0572 -5.7166 -2.6443 0
M  V30 93 C 11.1732 -4.7140 0.0898 0
M  V30 94 C 12.4387 -4.5748 -0.4737 0
M  V30 95 H 11.0225 -4.5335 1.1455 0
M  V30 96 H 13.2764 -4.2846 0.1404 0
M  V30 97 H 13.5667 -4.7353 -2.2979 0
M  V30 98 N 7.9374 -5.7484 -2.0480 0
M  V30 99 H 9.1872 -5.9683 -3.6963 0
M  V30 100 H 7.1511 -6.0401 -2.6218 0
M  V30 101 Zn -8.0802 4.8596 -0.9313 0 CHG=2
M  V30 102 C -8.7434 9.6045 -1.5183 0
M  V30 103 C -7.5000 8.9954 -1.4107 0
M  V30 104 C -7.4332 7.6141 -1.2312 0
M  V30 105 H -6.5958 9.5811 -1.4690 0
M  V30 106 N -8.5407 6.8542 -1.1609 0
M  V30 107 C -6.1577 6.9301 -1.1214 0
M  V30 108 C -9.7250 7.4421 -1.2623 0
M  V30 109 C -9.8788 8.8118 -1.4399 0
M  V30 110 H -10.5903 6.7972 -1.1942 0
M  V30 111 H -10.8652 9.2416 -1.5139 0
M  V30 112 H -8.8244 10.6715 -1.6589 0
M  V30 113 N -6.0929 5.6551 -1.0451 0
M  V30 114 H -5.2645 7.5537 -1.1406 0
M  V30 115 C -7.8502 4.9249 4.0096 0
M  V30 116 C -7.3560 3.9001 3.2127 0
M  V30 117 C -7.5215 3.9800 1.8320 0
M  V30 118 H -6.8552 3.0519 3.6536 0
M  V30 119 N -8.1310 5.0189 1.2396 0
M  V30 120 C -7.0577 2.9220 0.9499 0
M  V30 121 C -8.5994 5.9914 2.0028 0
M  V30 122 C -8.4883 5.9885 3.3924 0
M  V30 123 H -9.0920 6.8098 1.4973 0
M  V30 124 H -8.8949 6.8033 3.9701 0
M  V30 125 H -7.7427 4.8906 5.0829 0
M  V30 126 N -7.2873 2.9838 -0.2944 0
M  V30 127 H -6.5251 2.0965 1.4258 0
M  V30 128 H -6.9329 2.2169 -0.8558 0
M  V30 129 C -12.6421 3.2094 -1.7784 0
M  V30 130 C -11.6902 3.4359 -2.7649 0
M  V30 131 C -10.4217 3.8701 -2.3882 0
M  V30 132 H -11.9292 3.2872 -3.8068 0
M  V30 133 N -10.0835 4.0800 -1.1051 0
M  V30 134 C -9.3840 4.1289 -3.3797 0
M  V30 135 C -10.9952 3.8632 -0.1714 0
M  V30 136 C -12.2856 3.4251 -0.4565 0
M  V30 137 H -10.6935 4.0510 0.8496 0
M  V30 138 H -12.9943 3.2722 0.3419 0
M  V30 139 H -13.6376 2.8837 -2.0386 0
M  V30 140 N -8.2197 4.4547 -2.9971 0
M  V30 141 H -9.6698 4.0220 -4.4258 0
M  V30 142 H -7.5526 4.6381 -3.7419 0
M  V30 143 Zn 8.2712 4.9820 -0.4476 0 CHG=2
M  V30 144 C 8.6963 9.7320 0.2456 0
M  V30 145 C 7.4867 9.0507 0.2097 0
M  V30 146 C 7.4912 7.6682 0.0281 0
M  V30 147 H 6.5544 9.5820 0.3223 0
M  V30 148 N 8.6348 6.9751 -0.1135 0
M  V30 149 C 6.2539 6.9107 -0.0047 0
M  V30 150 C 9.7867 7.6308 -0.0770 0
M  V30 151 C 9.8697 9.0069 0.1007 0
M  V30 152 H 10.6829 7.0368 -0.1922 0
M  V30 153 H 10.8319 9.4936 0.1226 0
M  V30 154 H 8.7224 10.8021 0.3830 0
M  V30 155 N 6.2481 5.6340 -0.0782 0
M  V30 156 H 5.3296 7.4840 0.0658 0
M  V30 157 C 8.9571 3.2820 4.1400 0
M  V30 158 C 8.4643 2.5239 3.0859 0
M  V30 159 C 8.3346 3.1139 1.8311 0
M  V30 160 H 8.1811 1.4930 3.2341 0
M  V30 161 N 8.6636 4.3943 1.6051 0
M  V30 162 C 7.8281 2.3684 0.6869 0
M  V30 163 C 9.1327 5.1128 2.6102 0
M  V30 164 C 9.3003 4.6017 3.8964 0
M  V30 165 H 9.3918 6.1390 2.3932 0
M  V30 166 H 9.6901 5.2280 4.6831 0
M  V30 167 H 9.0705 2.8544 5.1243 0
M  V30 168 N 7.7243 2.9285 -0.4421 0
M  V30 169 H 7.5506 1.3279 0.8729 0
M  V30 170 H 7.3576 2.3650 -1.2018 0
M  V30 171 C 12.6455 3.9596 -2.4853 0
M  V30 172 C 11.5210 4.3732 -3.1889 0
M  V30 173 C 10.3415 4.6183 -2.4897 0
M  V30 174 H 11.5589 4.5063 -4.2591 0
M  V30 175 N 10.2484 4.4712 -1.1570 0
M  V30 176 C 9.1337 5.0513 -3.1799 0
M  V30 177 C 11.3256 4.0822 -0.4938 0
M  V30 178 C 12.5439 3.8118 -1.1110 0
M  V30 179 H 11.2222 3.9846 0.5783 0
M  V30 180 H 13.3927 3.5025 -0.5220 0
M  V30 181 H 13.5752 3.7653 -2.9979 0
M  V30 182 N 8.0560 5.2087 -2.5286 0
M  V30 183 H 9.2197 5.2183 -4.2531 0
M  V30 184 H 7.2600 5.5176 -3.0794 0
M  V30 185 Zn -8.3335 -4.5099 -0.3958 0 CHG=2
M  V30 186 C -9.1348 -9.2523 -0.7826 0
M  V30 187 C -7.8764 -8.6787 -0.6563 0
M  V30 188 C -7.7692 -7.2926 -0.5450 0
M  V30 189 H -6.9912 -9.2953 -0.6488 0
M  V30 190 N -8.8523 -6.4955 -0.5547 0
M  V30 191 C -6.4747 -6.6454 -0.4369 0
M  V30 192 C -10.0513 -7.0495 -0.6727 0
M  V30 193 C -10.2448 -8.4207 -0.7899 0
M  V30 194 H -10.8962 -6.3746 -0.6701 0
M  V30 195 H -11.2415 -8.8216 -0.8839 0
M  V30 196 H -9.2466 -10.3219 -0.8733 0
M  V30 197 N -6.3668 -5.3708 -0.4210 0
M  V30 198 H -5.6032 -7.2988 -0.4131 0
M  V30 199 C -8.3955 -4.3315 4.5499 0
M  V30 200 C -7.8509 -3.3483 3.7336 0
M  V30 201 C -7.9273 -3.5011 2.3511 0
M  V30 202 H -7.3792 -2.4767 4.1608 0
M  V30 203 N -8.5005 -4.5700 1.7751 0
M  V30 204 C -7.4015 -2.4924 1.4475 0
M  V30 205 C -9.0185 -5.5015 2.5571 0
M  V30 206 C -8.9944 -5.4268 3.9491 0
M  V30 207 H -9.4812 -6.3454 2.0656 0
M  V30 208 H -9.4374 -6.2118 4.5413 0
M  V30 209 H -8.3561 -4.2412 5.6246 0
M  V30 210 N -7.5324 -2.6274 0.1942 0
M  V30 211 H -6.9111 -1.6363 1.9145 0
M  V30 212 H -7.1390 -1.8898 -0.3799 0
M  V30 213 C -12.8004 -2.7691 -1.5585 0
M  V30 214 C -11.8107 -3.0793 -2.4829 0
M  V30 215 C -10.5768 -3.5308 -2.0209 0
M  V30 216 H -11.9943 -2.9817 -3.5419 0
M  V30 217 N -10.3067 -3.6792 -0.7133 0
M  V30 218 C -9.5035 -3.8764 -2.9450 0
M  V30 219 C -11.2545 -3.3836 0.1609 0
M  V30 220 C -12.5148 -2.9225 -0.2110 0
M  V30 221 H -11.0090 -3.5239 1.2043 0
M  V30 222 H -13.2553 -2.7041 0.5420 0
M  V30 223 H -13.7708 -2.4275 -1.8848 0
M  V30 224 N -8.3684 -4.2113 -2.4897 0
M  V30 225 H -9.7380 -3.8241 -4.0080 0
M  V30 226 H -7.6743 -4.4583 -3.1900 0
M  V30 END ATOM
M  V30 BEGIN BOND
M  V30 1 2 1 2
M  V30 2 1 2 3
M  V30 3 2 3 4
M  V30 4 1 4 5
M  V30 5 2 5 6
M  V30 6 1 6 7
M  V30 7 1 7 8
M  V30 8 2 8 9
M  V30 9 1 9 10
M  V30 10 2 10 11
M  V30 11 1 11 12
M  V30 12 2 12 13
M  V30 13 2 7 14
M  V30 14 1 14 15
M  V30 15 1 15 16
M  V30 16 2 16 17
M  V30 17 1 17 18
M  V30 18 1 18 19
M  V30 19 2 19 20
M  V30 20 1 20 21
M  V30 21 2 21 22
M  V30 22 1 22 23
M  V30 23 2 23 24
M  V30 24 2 18 25
M  V30 25 1 25 26
M  V30 26 1 26 27
M  V30 27 2 27 28
M  V30 28 1 28 29
M  V30 29 2 29 30
M  V30 30 1 30 31
M  V30 31 2 31 32
M  V30 32 2 26 33
M  V30 33 2 15 34
M  V30 34 1 4 35
M  V30 35 2 35 36
M  V30 36 1 36 1
M  V30 37 1 34 5
M  V30 38 1 13 8
M  V30 39 1 33 16
M  V30 40 1 24 19
M  V30 41 1 32 27
M  V30 42 1 2 37
M  V30 43 1 3 38
M  V30 44 1 6 39
M  V30 45 1 9 40
M  V30 46 1 10 41
M  V30 47 1 12 42
M  V30 48 1 13 43
M  V30 49 1 14 44
M  V30 50 1 17 45
M  V30 51 1 20 46
M  V30 52 1 21 47
M  V30 53 1 23 48
M  V30 54 1 24 49
M  V30 55 1 25 50
M  V30 56 1 28 51
M  V30 57 1 29 52
M  V30 58 1 31 53
M  V30 59 1 32 54
M  V30 60 1 33 55
M  V30 61 1 34 56
M  V30 62 1 35 57
M  V30 63 1 36 58
M  V30 64 1 60 70
M  V30 65 2 60 67
M  V30 66 1 61 60
M  V30 67 2 62 61
M  V30 68 1 62 64
M  V30 69 1 63 61
M  V30 70 2 64 66
M  V30 71 1 65 62
M  V30 72 1 66 67
M  V30 73 1 66 68
M  V30 74 1 67 69
M  V30 75 2 71 65
M  V30 76 1 72 65
M  V30 77 1 73 83
M  V30 78 2 73 80
M  V30 79 1 74 73
M  V30 80 2 75 74
M  V30 81 1 75 77
M  V30 82 1 76 74
M  V30 83 2 77 79
M  V30 84 1 78 75
M  V30 85 1 79 80
M  V30 86 1 79 81
M  V30 87 1 80 82
M  V30 88 2 84 78
M  V30 89 1 85 78
M  V30 90 1 86 84
M  V30 91 1 87 97
M  V30 92 2 87 94
M  V30 93 1 88 87
M  V30 94 2 89 88
M  V30 95 1 89 91
M  V30 96 1 90 88
M  V30 97 2 91 93
M  V30 98 1 92 89
M  V30 99 1 93 94
M  V30 100 1 93 95
M  V30 101 1 94 96
M  V30 102 2 98 92
M  V30 103 1 99 92
M  V30 104 1 100 98
M  V30 105 9 71 59
M  V30 106 9 64 59
M  V30 107 9 84 59
M  V30 108 9 77 59
M  V30 109 9 98 59
M  V30 110 9 91 59
M  V30 111 1 102 112
M  V30 112 2 102 109
M  V30 113 1 103 102
M  V30 114 2 104 103
M  V30 115 1 104 106
M  V30 116 1 105 103
M  V30 117 2 106 108
M  V30 118 1 107 104
M  V30 119 1 108 109
M  V30 120 1 108 110
M  V30 121 1 109 111
M  V30 122 2 113 107
M  V30 123 1 114 107
M  V30 124 1 115 125
M  V30 125 2 115 122
M  V30 126 1 116 115
M  V30 127 2 117 116
M  V30 128 1 117 119
M  V30 129 1 118 116
M  V30 130 2 119 121
M  V30 131 1 120 117
M  V30 132 1 121 122
M  V30 133 1 121 123
M  V30 134 1 122 124
M  V30 135 2 126 120
M  V30 136 1 127 120
M  V30 137 1 128 126
M  V30 138 1 129 139
M  V30 139 2 129 136
M  V30 140 1 130 129
M  V30 141 2 131 130
M  V30 142 1 131 133
M  V30 143 1 132 130
M  V30 144 2 133 135
M  V30 145 1 134 131
M  V30 146 1 135 136
M  V30 147 1 135 137
M  V30 148 1 136 138
M  V30 149 2 140 134
M  V30 150 1 141 134
M  V30 151 1 142 140
M  V30 152 9 113 101
M  V30 153 9 106 101
M  V30 154 9 126 101
M  V30 155 9 119 101
M  V30 156 9 140 101
M  V30 157 9 133 101
M  V30 158 1 144 154
M  V30 159 2 144 151
M  V30 160 1 145 144
M  V30 161 2 146 145
M  V30 162 1 146 148
M  V30 163 1 147 145
M  V30 164 2 148 150
M  V30 165 1 149 146
M  V30 166 1 150 151
M  V30 167 1 150 152
M  V30 168 1 151 153
M  V30 169 2 155 149
M  V30 170 1 156 149
M  V30 171 1 157 167
M  V30 172 2 157 164
M  V30 173 1 158 157
M  V30 174 2 159 158
M  V30 175 1 159 161
M  V30 176 1 160 158
M  V30 177 2 161 163
M  V30 178 1 162 159
M  V30 179 1 163 164
M  V30 180 1 163 165
M  V30 181 1 164 166
M  V30 182 2 168 162
M  V30 183 1 169 162
M  V30 184 1 170 168
M  V30 185 1 171 181
M  V30 186 2 171 178
M  V30 187 1 172 171
M  V30 188 2 173 172
M  V30 189 1 173 175
M  V30 190 1 174 172
M  V30 191 2 175 177
M  V30 192 1 176 173
M  V30 193 1 177 178
M  V30 194 1 177 179
M  V30 195 1 178 180
M  V30 196 2 182 176
M  V30 197 1 183 176
M  V30 198 1 184 182
M  V30 199 9 155 143
M  V30 200 9 148 143
M  V30 201 9 182 143
M  V30 202 9 175 143
M  V30 203 9 168 143
M  V30 204 9 161 143
M  V30 205 1 186 196
M  V30 206 2 186 193
M  V30 207 1 187 186
M  V30 208 2 188 187
M  V30 209 1 188 190
M  V30 210 1 189 187
M  V30 211 2 190 192
M  V30 212 1 191 188
M  V30 213 1 192 193
M  V30 214 1 192 194
M  V30 215 1 193 195
M  V30 216 2 197 191
M  V30 217 1 198 191
M  V30 218 1 199 209
M  V30 219 2 199 206
M  V30 220 1 200 199
M  V30 221 2 201 200
M  V30 222 1 201 203
M  V30 223 1 202 200
M  V30 224 2 203 205
M  V30 225 1 204 201
M  V30 226 1 205 206
M  V30 227 1 205 207
M  V30 228 1 206 208
M  V30 229 2 210 204
M  V30 230 1 211 204
M  V30 231 1 212 210
M  V30 232 1 213 223
M  V30 233 2 213 220
M  V30 234 1 214 213
M  V30 235 2 215 214
M  V30 236 1 215 217
M  V30 237 1 216 214
M  V30 238 2 217 219
M  V30 239 1 218 215
M  V30 240 1 219 220
M  V30 241 1 219 221
M  V30 242 1 220 222
M  V30 243 2 224 218
M  V30 244 1 225 218
M  V30 245 1 226 224
M  V30 246 9 197 185
M  V30 247 9 190 185
M  V30 248 9 224 185
M  V30 249 9 217 185
M  V30 250 9 210 185
M  V30 251 9 203 185
M  V30 252 1 30 155
M  V30 253 1 11 71
M  V30 254 1 1 197
M  V30 255 1 22 113
M  V30 END BOND
M  V30 END CTAB
M  END

$$$$
