
     RDKit          3D

  0  0  0  0  0  0  0  0  0  0999 V3000
M  V30 BEGIN CTAB
M  V30 COUNTS 236 266 0 0 0
M  V30 BEGIN ATOM
M  V30 1 C 7.2955 -4.8649 -0.4360 0
M  V30 2 C 6.1315 -4.7649 -1.2005 0
M  V30 3 C 5.4008 -3.5931 -1.2189 0
M  V30 4 C 5.7850 -2.4866 -0.4572 0
M  V30 5 C 5.0125 -1.2297 -0.4813 0
M  V30 6 C 5.6674 0.0006 -0.4949 0
M  V30 7 C 4.9506 1.1954 -0.5001 0
M  V30 8 C 5.6581 2.4903 -0.4966 0
M  V30 9 C 5.2412 3.5395 0.3256 0
M  V30 10 C 5.9165 4.7443 0.3515 0
M  V30 11 C 7.0489 4.9407 -0.4402 0
M  V30 12 C 7.4581 3.9017 -1.2817 0
M  V30 13 C 6.7719 2.7041 -1.3096 0
M  V30 14 C 3.5586 1.1464 -0.4969 0
M  V30 15 C 2.8803 -0.0700 -0.4940 0
M  V30 16 C 1.4048 -0.1021 -0.4916 0
M  V30 17 C 0.7056 -0.9841 0.3305 0
M  V30 18 C -0.6766 -1.0021 0.3435 0
M  V30 19 C -1.4135 -0.1380 -0.4643 0
M  V30 20 C -2.8892 -0.1437 -0.4389 0
M  V30 21 C -3.5979 1.0550 -0.4153 0
M  V30 22 C -4.9904 1.0685 -0.3925 0
M  V30 23 C -5.7294 2.3454 -0.3611 0
M  V30 24 C -6.8626 2.5408 -1.1516 0
M  V30 25 C -7.5755 3.7220 -1.0996 0
M  V30 26 C -7.1750 4.7623 -0.2556 0
M  V30 27 C -6.0247 4.5843 0.5144 0
M  V30 28 C -5.3224 3.3959 0.4644 0
M  V30 29 C -5.6765 -0.1443 -0.3901 0
M  V30 30 C -4.9906 -1.3576 -0.4044 0
M  V30 31 C -5.7303 -2.6342 -0.3885 0
M  V30 32 C -5.3294 -3.7172 -1.1751 0
M  V30 33 C -6.0306 -4.9070 -1.1680 0
M  V30 34 C -7.1812 -5.0497 -0.3900 0
M  V30 35 C -7.5751 -3.9788 0.4168 0
M  V30 36 C -6.8562 -2.7998 0.4201 0
M  V30 37 C -3.5974 -1.3427 -0.4313 0
M  V30 38 C -0.7144 0.7387 -1.2925 0
M  V30 39 C 0.6675 0.7560 -1.3062 0
M  V30 40 C 3.6192 -1.2505 -0.4850 0
M  V30 41 C 6.9263 -2.6091 0.3373 0
M  V30 42 C 7.6744 -3.7697 0.3447 0
M  V30 43 H 5.8396 -5.5993 -1.8209 0
M  V30 44 H 4.5340 -3.5216 -1.8586 0
M  V30 45 H 6.7465 0.0292 -0.4998 0
M  V30 46 H 4.3934 3.3955 0.9787 0
M  V30 47 H 5.6052 5.5253 1.0288 0
M  V30 48 H 8.2995 4.0488 -1.9425 0
M  V30 49 H 7.0977 1.9267 -1.9836 0
M  V30 50 H 2.9937 2.0669 -0.5019 0
M  V30 51 H 1.2514 -1.6447 0.9885 0
M  V30 52 H -1.1929 -1.6767 1.0110 0
M  V30 53 H -3.0562 1.9894 -0.4200 0
M  V30 54 H -7.1827 1.7626 -1.8274 0
M  V30 55 H -8.4318 3.8558 -1.7439 0
M  V30 56 H -5.7193 5.3658 1.1938 0
M  V30 57 H -4.4600 3.2653 1.1010 0
M  V30 58 H -6.7560 -0.1432 -0.3758 0
M  V30 59 H -4.4737 -3.6128 -1.8251 0
M  V30 60 H -5.7267 -5.7225 -1.8074 0
M  V30 61 H -8.4287 -4.0856 1.0697 0
M  V30 62 H -7.1683 -1.9971 1.0705 0
M  V30 63 H -3.0543 -2.2761 -0.4433 0
M  V30 64 H -1.2604 1.3972 -1.9520 0
M  V30 65 H 1.1834 1.4274 -1.9768 0
M  V30 66 H 3.1004 -2.1976 -0.4768 0
M  V30 67 H 7.2275 -1.7870 0.9685 0
M  V30 68 H 8.5400 -3.8435 0.9864 0
M  V30 69 Zn 7.1361 8.2013 -0.5899 0 CHG=2
M  V30 70 C 11.9471 8.4484 -0.1624 0
M  V30 71 C 11.2215 7.2665 -0.2092 0
M  V30 72 C 9.8313 7.3266 -0.3052 0
M  V30 73 H 11.7226 6.3119 -0.1720 0
M  V30 74 N 9.1727 8.4967 -0.3542 0
M  V30 75 C 9.0327 6.1175 -0.3414 0
M  V30 76 C 9.8710 9.6223 -0.3033 0
M  V30 77 C 11.2570 9.6507 -0.2070 0
M  V30 78 H 9.3043 10.5422 -0.3369 0
M  V30 79 H 11.7785 10.5937 -0.1689 0
M  V30 80 H 13.0237 8.4320 -0.0914 0
M  V30 81 N 7.7537 6.1501 -0.3730 0
M  V30 82 H 9.5794 5.1752 -0.3109 0
M  V30 83 C 5.6941 8.9240 4.0656 0
M  V30 84 C 4.8401 8.5910 3.0219 0
M  V30 85 C 5.3725 8.4073 1.7485 0
M  V30 86 H 3.7804 8.4767 3.1910 0
M  V30 87 N 6.6833 8.5388 1.4931 0
M  V30 88 C 4.5282 8.0551 0.6140 0
M  V30 89 C 7.4916 8.8573 2.4892 0
M  V30 90 C 7.0454 9.0605 3.7933 0
M  V30 91 H 8.5399 8.9606 2.2480 0
M  V30 92 H 7.7453 9.3218 4.5709 0
M  V30 93 H 5.3127 9.0749 5.0637 0
M  V30 94 N 5.0491 7.8577 -0.5228 0
M  V30 95 H 3.4587 7.9709 0.8132 0
M  V30 96 H 4.4129 7.6098 -1.2736 0
M  V30 97 C 6.2896 12.7357 -2.3698 0
M  V30 98 C 6.5799 11.6217 -3.1473 0
M  V30 99 C 6.7955 10.3985 -2.5168 0
M  V30 100 H 6.6400 11.6999 -4.2218 0
M  V30 101 N 6.7331 10.2539 -1.1829 0
M  V30 102 C 7.1043 9.1996 -3.2850 0
M  V30 103 C 6.4613 11.3206 -0.4493 0
M  V30 104 C 6.2309 12.5810 -0.9939 0
M  V30 105 H 6.4290 11.1737 0.6216 0
M  V30 106 H 6.0173 13.4188 -0.3495 0
M  V30 107 H 6.1195 13.6979 -2.8280 0
M  V30 108 N 7.2481 8.0876 -2.6917 0
M  V30 109 H 7.1963 9.3241 -4.3636 0
M  V30 110 H 7.4662 7.2993 -3.2944 0
M  V30 111 Zn -7.2591 -8.2962 -0.3242 0 CHG=2
M  V30 112 C -12.0793 -8.5595 -0.7380 0
M  V30 113 C -11.3620 -7.3733 -0.6727 0
M  V30 114 C -9.9741 -7.4252 -0.5453 0
M  V30 115 H -11.8677 -6.4216 -0.7227 0
M  V30 116 N -9.3096 -8.5916 -0.4864 0
M  V30 117 C -9.1832 -6.2114 -0.4840 0
M  V30 118 C -10.0004 -9.7212 -0.5481 0
M  V30 119 C -11.3842 -9.7579 -0.6718 0
M  V30 120 H -9.4301 -10.6379 -0.4908 0
M  V30 121 H -11.8999 -10.7038 -0.7144 0
M  V30 122 H -13.1537 -8.5492 -0.8374 0
M  V30 123 N -7.9052 -6.2457 -0.4465 0
M  V30 124 H -9.7330 -5.2708 -0.5078 0
M  V30 125 C -7.1181 -8.1361 4.6125 0
M  V30 126 C -6.0577 -7.7937 3.7832 0
M  V30 127 C -6.2182 -7.9039 2.4042 0
M  V30 128 H -5.1213 -7.4532 4.1973 0
M  V30 129 N -7.3652 -8.3190 1.8453 0
M  V30 130 C -5.1309 -7.5949 1.4868 0
M  V30 131 C -8.3701 -8.6465 2.6397 0
M  V30 132 C -8.2951 -8.5758 4.0288 0
M  V30 133 H -9.2756 -8.9889 2.1594 0
M  V30 134 H -9.1415 -8.8633 4.6320 0
M  V30 135 H -7.0242 -8.0668 5.6852 0
M  V30 136 N -5.2980 -7.7264 0.2382 0
M  V30 137 H -4.1945 -7.2668 1.9397 0
M  V30 138 H -4.4960 -7.5055 -0.3433 0
M  V30 139 C -5.9833 -12.9797 -1.1549 0
M  V30 140 C -6.1418 -12.0175 -2.1446 0
M  V30 141 C -6.4968 -10.7231 -1.7734 0
M  V30 142 H -5.9950 -12.2664 -3.1843 0
M  V30 143 N -6.6949 -10.3690 -0.4926 0
M  V30 144 C -6.6771 -9.6737 -2.7681 0
M  V30 145 C -6.5459 -11.2913 0.4437 0
M  V30 146 C -6.1895 -12.6080 0.1640 0
M  V30 147 H -6.7214 -10.9767 1.4629 0
M  V30 148 H -6.0846 -13.3221 0.9652 0
M  V30 149 H -5.7114 -13.9924 -1.4101 0
M  V30 150 N -6.9313 -8.4887 -2.3939 0
M  V30 151 H -6.5778 -9.9692 -3.8123 0
M  V30 152 H -7.0583 -7.8131 -3.1424 0
M  V30 153 Zn 7.4530 -8.1035 -0.2754 0 CHG=2
M  V30 154 C 12.2708 -8.2657 -0.7695 0
M  V30 155 C 11.5257 -7.0956 -0.7327 0
M  V30 156 C 10.1425 -7.1763 -0.5731 0
M  V30 157 H 12.0062 -6.1345 -0.8295 0
M  V30 158 N 9.5086 -8.3553 -0.4561 0
M  V30 159 C 9.3231 -5.9805 -0.5368 0
M  V30 160 C 10.2261 -9.4693 -0.4899 0
M  V30 161 C 11.6075 -9.4772 -0.6425 0
M  V30 162 H 9.6804 -10.3967 -0.3853 0
M  V30 163 H 12.1457 -10.4112 -0.6603 0
M  V30 164 H 13.3423 -8.2333 -0.8931 0
M  V30 165 N 8.0472 -6.0445 -0.4759 0
M  V30 166 H 9.8489 -5.0279 -0.5980 0
M  V30 167 C 7.3584 -7.7247 4.6483 0
M  V30 168 C 6.2811 -7.4466 3.8168 0
M  V30 169 C 6.4293 -7.6169 2.4426 0
M  V30 170 H 5.3412 -7.1095 4.2258 0
M  V30 171 N 7.5800 -8.0302 1.8900 0
M  V30 172 C 5.3250 -7.3768 1.5247 0
M  V30 173 C 8.6011 -8.2966 2.6866 0
M  V30 174 C 8.5394 -8.1632 4.0717 0
M  V30 175 H 9.5093 -8.6393 2.2115 0
M  V30 176 H 9.3989 -8.4022 4.6775 0
M  V30 177 H 7.2744 -7.6079 5.7177 0
M  V30 178 N 5.4825 -7.5606 0.2816 0
M  V30 179 H 4.3854 -7.0518 1.9732 0
M  V30 180 H 4.6692 -7.3865 -0.3001 0
M  V30 181 C 6.2958 -12.8481 -0.8979 0
M  V30 182 C 6.4170 -11.9235 -1.9279 0
M  V30 183 C 6.7399 -10.6057 -1.6142 0
M  V30 184 H 6.2661 -12.2190 -2.9548 0
M  V30 185 N 6.9420 -10.1941 -0.3514 0
M  V30 186 C 6.8801 -9.5934 -2.6530 0
M  V30 187 C 6.8284 -11.0806 0.6235 0
M  V30 188 C 6.5055 -12.4169 0.4022 0
M  V30 189 H 7.0061 -10.7195 1.6269 0
M  V30 190 H 6.4288 -13.1000 1.2331 0
M  V30 191 H 6.0493 -13.8774 -1.1082 0
M  V30 192 N 7.1065 -8.3877 -2.3308 0
M  V30 193 H 6.7767 -9.9341 -3.6830 0
M  V30 194 H 7.2059 -7.7402 -3.1077 0
M  V30 195 Zn -7.3349 8.0213 -0.3711 0 CHG=2
M  V30 196 C -12.1444 8.1595 0.1177 0
M  V30 197 C -11.3937 6.9942 0.0542 0
M  V30 198 C -10.0065 7.0855 -0.0596 0
M  V30 199 H -11.8731 6.0285 0.0920 0
M  V30 200 N -9.3745 8.2702 -0.1097 0
M  V30 201 C -9.1823 5.8945 -0.1157 0
M  V30 202 C -10.0967 9.3798 -0.0426 0
M  V30 203 C -11.4816 9.3770 0.0716 0
M  V30 204 H -9.5509 10.3122 -0.0776 0
M  V30 205 H -12.0232 10.3080 0.1221 0
M  V30 206 H -13.2194 8.1189 0.2026 0
M  V30 207 N -7.9049 5.9553 -0.1661 0
M  V30 208 H -9.7079 4.9403 -0.0847 0
M  V30 209 C -5.8574 8.7452 4.2732 0
M  V30 210 C -5.0076 8.4406 3.2174 0
M  V30 211 C -5.5502 8.2528 1.9488 0
M  V30 212 H -3.9436 8.3512 3.3737 0
M  V30 213 N -6.8667 8.3538 1.7092 0
M  V30 214 C -4.7107 7.9292 0.8024 0
M  V30 215 C -7.6710 8.6453 2.7169 0
M  V30 216 C -7.2148 8.8502 4.0173 0
M  V30 217 H -8.7242 8.7244 2.4885 0
M  V30 218 H -7.9119 9.0887 4.8047 0
M  V30 219 H -5.4683 8.8985 5.2679 0
M  V30 220 N -5.2399 7.7268 -0.3298 0
M  V30 221 H -3.6373 7.8697 0.9888 0
M  V30 222 H -4.6065 7.4996 -1.0895 0
M  V30 223 C -6.6124 12.5873 -2.1272 0
M  V30 224 C -6.8869 11.4726 -2.9095 0
M  V30 225 C -7.0669 10.2403 -2.2858 0
M  V30 226 H -6.9619 11.5573 -3.9827 0
M  V30 227 N -6.9850 10.0874 -0.9539 0
M  V30 228 C -7.3579 9.0403 -3.0592 0
M  V30 229 C -6.7284 11.1546 -0.2155 0
M  V30 230 C -6.5332 12.4238 -0.7534 0
M  V30 231 H -6.6797 11.0006 0.8538 0
M  V30 232 H -6.3308 13.2616 -0.1052 0
M  V30 233 H -6.4697 13.5563 -2.5802 0
M  V30 234 N -7.4689 7.9211 -2.4727 0
M  V30 235 H -7.4663 9.1706 -4.1357 0
M  V30 236 H -7.6765 7.1323 -3.0786 0
M  V30 END ATOM
M  V30 BEGIN BOND
M  V30 1 2 1 2
M  V30 2 1 2 3
M  V30 3 2 3 4
M  V30 4 1 4 5
M  V30 5 2 5 6
M  V30 6 1 6 7
M  V30 7 1 7 8
M  V30 8 2 8 9
M  V30 9 1 9 10
M  V30 10 2 10 11
M  V30 11 1 11 12
M  V30 12 2 12 13
M  V30 13 2 7 14
M  V30 14 1 14 15
M  V30 15 1 15 16
M  V30 16 2 16 17
M  V30 17 1 17 18
M  V30 18 2 18 19
M  V30 19 1 19 20
M  V30 20 2 20 21
M  V30 21 1 21 22
M  V30 22 1 22 23
M  V30 23 2 23 24
M  V30 24 1 24 25
M  V30 25 2 25 26
M  V30 26 1 26 27
M  V30 27 2 27 28
M  V30 28 2 22 29
M  V30 29 1 29 30
M  V30 30 1 30 31
M  V30 31 2 31 32
M  V30 32 1 32 33
M  V30 33 2 33 34
M  V30 34 1 34 35
M  V30 35 2 35 36
M  V30 36 2 30 37
M  V30 37 1 19 38
M  V30 38 2 38 39
M  V30 39 2 15 40
M  V30 40 1 4 41
M  V30 41 2 41 42
M  V30 42 1 42 1
M  V30 43 1 40 5
M  V30 44 1 13 8
M  V30 45 1 39 16
M  V30 46 1 37 20
M  V30 47 1 28 23
M  V30 48 1 36 31
M  V30 49 1 2 43
M  V30 50 1 3 44
M  V30 51 1 6 45
M  V30 52 1 9 46
M  V30 53 1 10 47
M  V30 54 1 12 48
M  V30 55 1 13 49
M  V30 56 1 14 50
M  V30 57 1 17 51
M  V30 58 1 18 52
M  V30 59 1 21 53
M  V30 60 1 24 54
M  V30 61 1 25 55
M  V30 62 1 27 56
M  V30 63 1 28 57
M  V30 64 1 29 58
M  V30 65 1 32 59
M  V30 66 1 33 60
M  V30 67 1 35 61
M  V30 68 1 36 62
M  V30 69 1 37 63
M  V30 70 1 38 64
M  V30 71 1 39 65
M  V30 72 1 40 66
M  V30 73 1 41 67
M  V30 74 1 42 68
M  V30 75 1 70 80
M  V30 76 2 70 77
M  V30 77 1 71 70
M  V30 78 2 72 71
M  V30 79 1 72 74
M  V30 80 1 73 71
M  V30 81 2 74 76
M  V30 82 1 75 72
M  V30 83 1 76 77
M  V30 84 1 76 78
M  V30 85 1 77 79
M  V30 86 2 81 75
M  V30 87 1 82 75
M  V30 88 1 83 93
M  V30 89 2 83 90
M  V30 90 1 84 83
M  V30 91 2 85 84
M  V30 92 1 85 87
M  V30 93 1 86 84
M  V30 94 2 87 89
M  V30 95 1 88 85
M  V30 96 1 89 90
M  V30 97 1 89 91
M  V30 98 1 90 92
M  V30 99 2 94 88
M  V30 100 1 95 88
M  V30 101 1 96 94
M  V30 102 1 97 107
M  V30 103 2 97 104
M  V30 104 1 98 97
M  V30 105 2 99 98
M  V30 106 1 99 101
M  V30 107 1 100 98
M  V30 108 2 101 103
M  V30 109 1 102 99
M  V30 110 1 103 104
M  V30 111 1 103 105
M  V30 112 1 104 106
M  V30 113 2 108 102
M  V30 114 1 109 102
M  V30 115 1 110 108
M  V30 116 9 81 69
M  V30 117 9 74 69
M  V30 118 9 94 69
M  V30 119 9 87 69
M  V30 120 9 108 69
M  V30 121 9 101 69
M  V30 122 1 112 122
M  V30 123 2 112 119
M  V30 124 1 113 112
M  V30 125 2 114 113
M  V30 126 1 114 116
M  V30 127 1 115 113
M  V30 128 2 116 118
M  V30 129 1 117 114
M  V30 130 1 118 119
M  V30 131 1 118 120
M  V30 132 1 119 121
M  V30 133 2 123 117
M  V30 134 1 124 117
M  V30 135 1 125 135
M  V30 136 2 125 132
M  V30 137 1 126 125
M  V30 138 2 127 126
M  V30 139 1 127 129
M  V30 140 1 128 126
M  V30 141 2 129 131
M  V30 142 1 130 127
M  V30 143 1 131 132
M  V30 144 1 131 133
M  V30 145 1 132 134
M  V30 146 2 136 130
M  V30 147 1 137 130
M  V30 148 1 138 136
M  V30 149 1 139 149
M  V30 150 2 139 146
M  V30 151 1 140 139
M  V30 152 2 141 140
M  V30 153 1 141 143
M  V30 154 1 142 140
M  V30 155 2 143 145
M  V30 156 1 144 141
M  V30 157 1 145 146
M  V30 158 1 145 147
M  V30 159 1 146 148
M  V30 160 2 150 144
M  V30 161 1 151 144
M  V30 162 1 152 150
M  V30 163 9 123 111
M  V30 164 9 116 111
M  V30 165 9 136 111
M  V30 166 9 129 111
M  V30 167 9 150 111
M  V30 168 9 143 111
M  V30 169 1 154 164
M  V30 170 2 154 161
M  V30 171 1 155 154
M  V30 172 2 156 155
M  V30 173 1 156 158
M  V30 174 1 157 155
M  V30 175 2 158 160
M  V30 176 1 159 156
M  V30 177 1 160 161
M  V30 178 1 160 162
M  V30 179 1 161 163
M  V30 180 2 165 159
M  V30 181 1 166 159
M  V30 182 1 167 177
M  V30 183 2 167 174
M  V30 184 1 168 167
M  V30 185 2 169 168
M  V30 186 1 169 171
M  V30 187 1 170 168
M  V30 188 2 171 173
M  V30 189 1 172 169
M  V30 190 1 173 174
M  V30 191 1 173 175
M  V30 192 1 174 176
M  V30 193 2 178 172
M  V30 194 1 179 172
M  V30 195 1 180 178
M  V30 196 1 181 191
M  V30 197 2 181 188
M  V30 198 1 182 181
M  V30 199 2 183 182
M  V30 200 1 183 185
M  V30 201 1 184 182
M  V30 202 2 185 187
M  V30 203 1 186 183
M  V30 204 1 187 188
M  V30 205 1 187 189
M  V30 206 1 188 190
M  V30 207 2 192 186
M  V30 208 1 193 186
M  V30 209 1 194 192
M  V30 210 9 165 153
M  V30 211 9 158 153
M  V30 212 9 192 153
M  V30 213 9 185 153
M  V30 214 9 178 153
M  V30 215 9 171 153
M  V30 216 1 196 206
M  V30 217 2 196 203
M  V30 218 1 197 196
M  V30 219 2 198 197
M  V30 220 1 198 200
M  V30 221 1 199 197
M  V30 222 2 200 202
M  V30 223 1 201 198
M  V30 224 1 202 203
M  V30 225 1 202 204
M  V30 226 1 203 205
M  V30 227 2 207 201
M  V30 228 1 208 201
M  V30 229 1 209 219
M  V30 230 2 209 216
M  V30 231 1 210 209
M  V30 232 2 211 210
M  V30 233 1 211 213
M  V30 234 1 212 210
M  V30 235 2 213 215
M  V30 236 1 214 211
M  V30 237 1 215 216
M  V30 238 1 215 217
M  V30 239 1 216 218
M  V30 240 2 220 214
M  V30 241 1 221 214
M  V30 242 1 222 220
M  V30 243 1 223 233
M  V30 244 2 223 230
M  V30 245 1 224 223
M  V30 246 2 225 224
M  V30 247 1 225 227
M  V30 248 1 226 224
M  V30 249 2 227 229
M  V30 250 1 228 225
M  V30 251 1 229 230
M  V30 252 1 229 231
M  V30 253 1 230 232
M  V30 254 2 234 228
M  V30 255 1 235 228
M  V30 256 1 236 234
M  V30 257 9 207 195
M  V30 258 9 200 195
M  V30 259 9 234 195
M  V30 260 9 227 195
M  V30 261 9 220 195
M  V30 262 9 213 195
M  V30 263 1 11 81
M  V30 264 1 1 165
M  V30 265 1 34 123
M  V30 266 1 26 207
M  V30 END BOND
M  V30 END CTAB
M  END

$$$$
