
     RDKit          3D

  0  0  0  0  0  0  0  0  0  0999 V3000
M  V30 BEGIN CTAB
M  V30 COUNTS 230 259 0 0 0
M  V30 BEGIN ATOM
M  V30 1 C -7.1353 3.3563 0.1074 0
M  V30 2 C -7.5867 2.3550 -0.7644 0
M  V30 3 C -6.8799 1.1863 -0.9346 0
M  V30 4 C -5.6878 0.9549 -0.2375 0
M  V30 5 N -4.9792 -0.2351 -0.4286 0
M  V30 6 C -5.6943 -1.4286 -0.5792 0
M  V30 7 C -5.2875 -2.4241 -1.4744 0
M  V30 8 C -5.9980 -3.5985 -1.6000 0
M  V30 9 C -7.1538 -3.8388 -0.8411 0
M  V30 10 C -7.5764 -2.8288 0.0287 0
M  V30 11 C -6.8614 -1.6579 0.1626 0
M  V30 12 C -3.5705 -0.2087 -0.4887 0
M  V30 13 C -2.9006 0.9140 -0.9798 0
M  V30 14 C -1.5211 0.9678 -1.0011 0
M  V30 15 C -0.7370 -0.0995 -0.5551 0
M  V30 16 C 0.7365 -0.0253 -0.5616 0
M  V30 17 C 1.4291 0.7440 -1.5020 0
M  V30 18 C 2.8094 0.8273 -1.4989 0
M  V30 19 C 3.5594 0.1268 -0.5566 0
M  V30 20 N 4.9772 0.1808 -0.5549 0
M  V30 21 C 5.6362 1.4065 -0.6491 0
M  V30 22 C 6.8796 1.5150 -1.2892 0
M  V30 23 C 7.5493 2.7168 -1.3477 0
M  V30 24 C 7.0034 3.8795 -0.7925 0
M  V30 25 C 5.7518 3.7746 -0.1684 0
M  V30 26 C 5.0861 2.5696 -0.0972 0
M  V30 27 C 5.7002 -1.0025 -0.4302 0
M  V30 28 C 6.9176 -1.0331 0.2638 0
M  V30 29 C 7.6589 -2.1887 0.3511 0
M  V30 30 C 7.2163 -3.3801 -0.2419 0
M  V30 31 C 5.9702 -3.3646 -0.8778 0
M  V30 32 C 5.2313 -2.2053 -0.9756 0
M  V30 33 C 2.8823 -0.6462 0.3857 0
M  V30 34 C 1.5021 -0.7133 0.3842 0
M  V30 35 C -1.4171 -1.2304 -0.0946 0
M  V30 36 C -2.7979 -1.2857 -0.0525 0
M  V30 37 C -5.2315 1.9571 0.6278 0
M  V30 38 C -5.9352 3.1317 0.7895 0
M  V30 39 H -8.4732 2.5220 -1.3578 0
M  V30 40 H -7.2365 0.4446 -1.6332 0
M  V30 41 H -4.4143 -2.2618 -2.0881 0
M  V30 42 H -5.6801 -4.3214 -2.3363 0
M  V30 43 H -8.4497 -2.9967 0.6394 0
M  V30 44 H -7.1938 -0.9110 0.8681 0
M  V30 45 H -3.4687 1.7532 -1.3529 0
M  V30 46 H -1.0476 1.8671 -1.3634 0
M  V30 47 H 0.8851 1.2670 -2.2730 0
M  V30 48 H 3.3128 1.4255 -2.2438 0
M  V30 49 H 7.3095 0.6443 -1.7608 0
M  V30 50 H 8.4898 2.7850 -1.8723 0
M  V30 51 H 5.3190 4.6379 0.3145 0
M  V30 52 H 4.1346 2.5154 0.4100 0
M  V30 53 H 7.2714 -0.1360 0.7494 0
M  V30 54 H 8.5723 -2.1839 0.9268 0
M  V30 55 H 5.6168 -4.2686 -1.3489 0
M  V30 56 H 4.2907 -2.2126 -1.5050 0
M  V30 57 H 3.4462 -1.1852 1.1333 0
M  V30 58 H 1.0127 -1.2919 1.1526 0
M  V30 59 H -0.8604 -2.0949 0.2330 0
M  V30 60 H -3.2817 -2.1708 0.3331 0
M  V30 61 H -4.3230 1.7969 1.1884 0
M  V30 62 H -5.5849 3.8726 1.4908 0
M  V30 63 Zn 9.8713 5.4961 -0.7584 0 CHG=2
M  V30 64 C 7.8078 9.8418 -1.3333 0
M  V30 65 C 7.1018 8.6504 -1.2642 0
M  V30 66 C 7.7985 7.4541 -1.0820 0
M  V30 67 H 6.0265 8.6432 -1.3516 0
M  V30 68 N 9.1371 7.4267 -0.9753 0
M  V30 69 C 7.0968 6.1898 -1.0060 0
M  V30 70 C 9.8071 8.5685 -1.0430 0
M  V30 71 C 9.1897 9.8008 -1.2182 0
M  V30 72 H 10.8816 8.5025 -0.9478 0
M  V30 73 H 9.7794 10.7023 -1.2630 0
M  V30 74 H 7.2945 10.7805 -1.4733 0
M  V30 75 N 7.7152 5.0732 -0.8801 0
M  V30 76 H 6.0118 6.2402 -1.0942 0
M  V30 77 C 9.9184 5.4533 4.1834 0
M  V30 78 C 10.2250 4.3593 3.3846 0
M  V30 79 C 10.1771 4.5019 2.0000 0
M  V30 80 H 10.5045 3.4154 3.8268 0
M  V30 81 N 9.8343 5.6560 1.4072 0
M  V30 82 C 10.5290 3.4025 1.1124 0
M  V30 83 C 9.5496 6.6954 2.1730 0
M  V30 84 C 9.5800 6.6458 3.5645 0
M  V30 85 H 9.2944 7.6151 1.6660 0
M  V30 86 H 9.3505 7.5265 4.1428 0
M  V30 87 H 9.9530 5.3773 5.2593 0
M  V30 88 N 10.4437 3.5500 -0.1427 0
M  V30 89 H 10.8708 2.4846 1.5918 0
M  V30 90 H 10.7339 2.7545 -0.7028 0
M  V30 91 C 14.6005 6.5330 -1.6643 0
M  V30 92 C 13.6668 6.1824 -2.6323 0
M  V30 93 C 12.3543 5.9296 -2.2410 0
M  V30 94 H 13.9523 6.1034 -3.6700 0
M  V30 95 N 11.9526 6.0169 -0.9607 0
M  V30 96 C 11.3373 5.5512 -3.2115 0
M  V30 97 C 12.8455 6.3610 -0.0469 0
M  V30 98 C 14.1794 6.6262 -0.3474 0
M  V30 99 H 12.4895 6.4358 0.9714 0
M  V30 100 H 14.8664 6.9025 0.4367 0
M  V30 101 H 15.6265 6.7308 -1.9347 0
M  V30 102 N 10.1725 5.2340 -2.8177 0
M  V30 103 H 11.6383 5.5551 -4.2586 0
M  V30 104 H 9.5160 4.9930 -3.5550 0
M  V30 105 Zn 7.4138 -6.6442 -0.0414 0 CHG=2
M  V30 106 C 12.2568 -6.6930 -0.2742 0
M  V30 107 C 11.4815 -5.5447 -0.3224 0
M  V30 108 C 10.0919 -5.6560 -0.2412 0
M  V30 109 H 11.9430 -4.5744 -0.4203 0
M  V30 110 N 9.4826 -6.8478 -0.1262 0
M  V30 111 C 9.2509 -4.4805 -0.2797 0
M  V30 112 C 10.2293 -7.9424 -0.0849 0
M  V30 113 C 11.6171 -7.9180 -0.1507 0
M  V30 114 H 9.7024 -8.8811 0.0118 0
M  V30 115 H 12.1792 -8.8369 -0.1057 0
M  V30 116 H 13.3329 -6.6356 -0.3304 0
M  V30 117 N 7.9703 -4.5500 -0.2215 0
M  V30 118 H 9.7682 -3.5281 -0.3909 0
M  V30 119 C 7.0814 -6.5309 4.8892 0
M  V30 120 C 6.0133 -6.3278 4.0248 0
M  V30 121 C 6.2373 -6.3881 2.6515 0
M  V30 122 H 5.0233 -6.1342 4.4079 0
M  V30 123 N 7.4514 -6.6236 2.1303 0
M  V30 124 C 5.1489 -6.2259 1.6984 0
M  V30 125 C 8.4635 -6.8186 2.9586 0
M  V30 126 C 8.3294 -6.7862 4.3445 0
M  V30 127 H 9.4257 -7.0191 2.5094 0
M  V30 128 H 9.1857 -6.9639 4.9754 0
M  V30 129 H 6.9397 -6.4985 5.9585 0
M  V30 130 N 5.3828 -6.2793 0.4546 0
M  V30 131 H 4.1548 -6.0744 2.1204 0
M  V30 132 H 4.5737 -6.1838 -0.1513 0
M  V30 133 C 6.5130 -11.4024 -0.9121 0
M  V30 134 C 6.6354 -10.4292 -1.8964 0
M  V30 135 C 6.8807 -9.1129 -1.5139 0
M  V30 136 H 6.5428 -10.6862 -2.9404 0
M  V30 137 N 7.0080 -8.7474 -0.2269 0
M  V30 138 C 7.0130 -8.0514 -2.5022 0
M  V30 139 C 6.8946 -9.6803 0.7041 0
M  V30 140 C 6.6453 -11.0190 0.4130 0
M  V30 141 H 7.0114 -9.3556 1.7288 0
M  V30 142 H 6.5637 -11.7402 1.2106 0
M  V30 143 H 6.3234 -12.4315 -1.1759 0
M  V30 144 N 7.1660 -6.8504 -2.1218 0
M  V30 145 H 6.9676 -8.3515 -3.5486 0
M  V30 146 H 7.2604 -6.1668 -2.8677 0
M  V30 147 Zn -10.0360 -5.5135 -0.9802 0 CHG=2
M  V30 148 C -7.8416 -9.7905 -1.5359 0
M  V30 149 C -7.1731 -8.5791 -1.4457 0
M  V30 150 C -7.9061 -7.4095 -1.2353 0
M  V30 151 H -6.0993 -8.5357 -1.5401 0
M  V30 152 N -9.2437 -7.4255 -1.1193 0
M  V30 153 C -7.2382 -6.1312 -1.1143 0
M  V30 154 C -9.8763 -8.5880 -1.1934 0
M  V30 155 C -9.2220 -9.7963 -1.3994 0
M  V30 156 H -10.9504 -8.5599 -1.0791 0
M  V30 157 H -9.7828 -10.7156 -1.4515 0
M  V30 158 H -7.3007 -10.7086 -1.7050 0
M  V30 159 N -7.8724 -5.0326 -0.9223 0
M  V30 160 H -6.1497 -6.1605 -1.1652 0
M  V30 161 C -11.0613 -5.4672 3.8309 0
M  V30 162 C -11.3564 -4.4305 2.9542 0
M  V30 163 C -10.9823 -4.5524 1.6184 0
M  V30 164 H -11.8707 -3.5467 3.2992 0
M  V30 165 N -10.3436 -5.6352 1.1458 0
M  V30 166 C -11.2690 -3.5025 0.6494 0
M  V30 167 C -10.0689 -6.6200 1.9841 0
M  V30 168 C -10.4064 -6.5830 3.3351 0
M  V30 169 H -9.5633 -7.4808 1.5699 0
M  V30 170 H -10.1647 -7.4154 3.9765 0
M  V30 171 H -11.3414 -5.4051 4.8713 0
M  V30 172 N -10.8510 -3.6160 -0.5418 0
M  V30 173 H -11.8391 -2.6473 1.0131 0
M  V30 174 H -11.0890 -2.8580 -1.1735 0
M  V30 175 C -14.5552 -6.7909 -2.5498 0
M  V30 176 C -13.5232 -6.3540 -3.3714 0
M  V30 177 C -12.2908 -6.0466 -2.7994 0
M  V30 178 H -13.6725 -6.2515 -4.4353 0
M  V30 179 N -12.0590 -6.1566 -1.4800 0
M  V30 180 C -11.1776 -5.5851 -3.6155 0
M  V30 181 C -13.0441 -6.5834 -0.7065 0
M  V30 182 C -14.3077 -6.9119 -1.1917 0
M  V30 183 H -12.8243 -6.6759 0.3484 0
M  V30 184 H -15.0747 -7.2564 -0.5163 0
M  V30 185 H -15.5231 -7.0330 -2.9617 0
M  V30 186 N -10.0829 -5.2469 -3.0681 0
M  V30 187 H -11.3470 -5.5513 -4.6914 0
M  V30 188 H -9.3552 -4.9424 -3.7081 0
M  V30 189 Zn -7.2439 6.6334 0.3347 0 CHG=2
M  V30 190 C -12.0777 6.7798 0.5487 0
M  V30 191 C -11.3324 5.6166 0.4291 0
M  V30 192 C -9.9387 5.6980 0.4181 0
M  V30 193 H -11.8200 4.6583 0.3419 0
M  V30 194 N -9.2969 6.8739 0.5218 0
M  V30 195 C -9.1280 4.5066 0.2990 0
M  V30 196 C -10.0151 7.9810 0.6483 0
M  V30 197 C -11.4045 7.9870 0.6664 0
M  V30 198 H -9.4628 8.9050 0.7436 0
M  V30 199 H -11.9421 8.9159 0.7693 0
M  V30 200 H -13.1562 6.7466 0.5526 0
M  V30 201 N -7.8448 4.5424 0.2938 0
M  V30 202 H -9.6717 3.5643 0.2351 0
M  V30 203 C -5.9968 6.9336 5.0844 0
M  V30 204 C -5.0893 6.7786 4.0440 0
M  V30 205 C -5.5696 6.6871 2.7402 0
M  V30 206 H -4.0290 6.7318 4.2395 0
M  V30 207 N -6.8797 6.7415 2.4514 0
M  V30 208 C -4.6684 6.5241 1.6069 0
M  V30 209 C -7.7386 6.8915 3.4451 0
M  V30 210 C -7.3468 6.9918 4.7782 0
M  V30 211 H -8.7845 6.9389 3.1775 0
M  V30 212 H -8.0870 7.1178 5.5522 0
M  V30 213 H -5.6566 7.0106 6.1056 0
M  V30 214 N -5.1433 6.3788 0.4414 0
M  V30 215 H -3.6010 6.5267 1.8309 0
M  V30 216 H -4.4673 6.2702 -0.3079 0
M  V30 217 C -6.4815 11.3460 -0.9437 0
M  V30 218 C -6.7105 10.3101 -1.8409 0
M  V30 219 C -6.9107 9.0233 -1.3466 0
M  V30 220 H -6.7344 10.4967 -2.9035 0
M  V30 221 N -6.8908 8.7441 -0.0325 0
M  V30 222 C -7.1564 7.9024 -2.2430 0
M  V30 223 C -6.6784 9.7370 0.8155 0
M  V30 224 C -6.4676 11.0526 0.4106 0
M  V30 225 H -6.6800 9.4823 1.8665 0
M  V30 226 H -6.3023 11.8253 1.1445 0
M  V30 227 H -6.3231 12.3540 -1.2950 0
M  V30 228 N -7.2886 6.7311 -1.7729 0
M  V30 229 H -7.2143 8.1349 -3.3061 0
M  V30 230 H -7.4623 6.0046 -2.4615 0
M  V30 END ATOM
M  V30 BEGIN BOND
M  V30 1 2 1 2
M  V30 2 1 2 3
M  V30 3 2 3 4
M  V30 4 1 4 5
M  V30 5 1 5 6
M  V30 6 2 6 7
M  V30 7 1 7 8
M  V30 8 2 8 9
M  V30 9 1 9 10
M  V30 10 2 10 11
M  V30 11 1 5 12
M  V30 12 2 12 13
M  V30 13 1 13 14
M  V30 14 2 14 15
M  V30 15 1 15 16
M  V30 16 2 16 17
M  V30 17 1 17 18
M  V30 18 2 18 19
M  V30 19 1 19 20
M  V30 20 1 20 21
M  V30 21 2 21 22
M  V30 22 1 22 23
M  V30 23 2 23 24
M  V30 24 1 24 25
M  V30 25 2 25 26
M  V30 26 1 20 27
M  V30 27 2 27 28
M  V30 28 1 28 29
M  V30 29 2 29 30
M  V30 30 1 30 31
M  V30 31 2 31 32
M  V30 32 1 19 33
M  V30 33 2 33 34
M  V30 34 1 15 35
M  V30 35 2 35 36
M  V30 36 1 4 37
M  V30 37 2 37 38
M  V30 38 1 38 1
M  V30 39 1 11 6
M  V30 40 1 36 12
M  V30 41 1 34 16
M  V30 42 1 26 21
M  V30 43 1 32 27
M  V30 44 1 2 39
M  V30 45 1 3 40
M  V30 46 1 7 41
M  V30 47 1 8 42
M  V30 48 1 10 43
M  V30 49 1 11 44
M  V30 50 1 13 45
M  V30 51 1 14 46
M  V30 52 1 17 47
M  V30 53 1 18 48
M  V30 54 1 22 49
M  V30 55 1 23 50
M  V30 56 1 25 51
M  V30 57 1 26 52
M  V30 58 1 28 53
M  V30 59 1 29 54
M  V30 60 1 31 55
M  V30 61 1 32 56
M  V30 62 1 33 57
M  V30 63 1 34 58
M  V30 64 1 35 59
M  V30 65 1 36 60
M  V30 66 1 37 61
M  V30 67 1 38 62
M  V30 68 1 64 74
M  V30 69 2 64 71
M  V30 70 1 65 64
M  V30 71 2 66 65
M  V30 72 1 66 68
M  V30 73 1 67 65
M  V30 74 2 68 70
M  V30 75 1 69 66
M  V30 76 1 70 71
M  V30 77 1 70 72
M  V30 78 1 71 73
M  V30 79 2 75 69
M  V30 80 1 76 69
M  V30 81 1 77 87
M  V30 82 2 77 84
M  V30 83 1 78 77
M  V30 84 2 79 78
M  V30 85 1 79 81
M  V30 86 1 80 78
M  V30 87 2 81 83
M  V30 88 1 82 79
M  V30 89 1 83 84
M  V30 90 1 83 85
M  V30 91 1 84 86
M  V30 92 2 88 82
M  V30 93 1 89 82
M  V30 94 1 90 88
M  V30 95 1 91 101
M  V30 96 2 91 98
M  V30 97 1 92 91
M  V30 98 2 93 92
M  V30 99 1 93 95
M  V30 100 1 94 92
M  V30 101 2 95 97
M  V30 102 1 96 93
M  V30 103 1 97 98
M  V30 104 1 97 99
M  V30 105 1 98 100
M  V30 106 2 102 96
M  V30 107 1 103 96
M  V30 108 1 104 102
M  V30 109 9 75 63
M  V30 110 9 68 63
M  V30 111 9 102 63
M  V30 112 9 95 63
M  V30 113 9 88 63
M  V30 114 9 81 63
M  V30 115 1 106 116
M  V30 116 2 106 113
M  V30 117 1 107 106
M  V30 118 2 108 107
M  V30 119 1 108 110
M  V30 120 1 109 107
M  V30 121 2 110 112
M  V30 122 1 111 108
M  V30 123 1 112 113
M  V30 124 1 112 114
M  V30 125 1 113 115
M  V30 126 2 117 111
M  V30 127 1 118 111
M  V30 128 1 119 129
M  V30 129 2 119 126
M  V30 130 1 120 119
M  V30 131 2 121 120
M  V30 132 1 121 123
M  V30 133 1 122 120
M  V30 134 2 123 125
M  V30 135 1 124 121
M  V30 136 1 125 126
M  V30 137 1 125 127
M  V30 138 1 126 128
M  V30 139 2 130 124
M  V30 140 1 131 124
M  V30 141 1 132 130
M  V30 142 1 133 143
M  V30 143 2 133 140
M  V30 144 1 134 133
M  V30 145 2 135 134
M  V30 146 1 135 137
M  V30 147 1 136 134
M  V30 148 2 137 139
M  V30 149 1 138 135
M  V30 150 1 139 140
M  V30 151 1 139 141
M  V30 152 1 140 142
M  V30 153 2 144 138
M  V30 154 1 145 138
M  V30 155 1 146 144
M  V30 156 9 117 105
M  V30 157 9 110 105
M  V30 158 9 144 105
M  V30 159 9 137 105
M  V30 160 9 130 105
M  V30 161 9 123 105
M  V30 162 1 148 158
M  V30 163 2 148 155
M  V30 164 1 149 148
M  V30 165 2 150 149
M  V30 166 1 150 152
M  V30 167 1 151 149
M  V30 168 2 152 154
M  V30 169 1 153 150
M  V30 170 1 154 155
M  V30 171 1 154 156
M  V30 172 1 155 157
M  V30 173 2 159 153
M  V30 174 1 160 153
M  V30 175 1 161 171
M  V30 176 2 161 168
M  V30 177 1 162 161
M  V30 178 2 163 162
M  V30 179 1 163 165
M  V30 180 1 164 162
M  V30 181 2 165 167
M  V30 182 1 166 163
M  V30 183 1 167 168
M  V30 184 1 167 169
M  V30 185 1 168 170
M  V30 186 2 172 166
M  V30 187 1 173 166
M  V30 188 1 174 172
M  V30 189 1 175 185
M  V30 190 2 175 182
M  V30 191 1 176 175
M  V30 192 2 177 176
M  V30 193 1 177 179
M  V30 194 1 178 176
M  V30 195 2 179 181
M  V30 196 1 180 177
M  V30 197 1 181 182
M  V30 198 1 181 183
M  V30 199 1 182 184
M  V30 200 2 186 180
M  V30 201 1 187 180
M  V30 202 1 188 186
M  V30 203 9 159 147
M  V30 204 9 152 147
M  V30 205 9 186 147
M  V30 206 9 179 147
M  V30 207 9 172 147
M  V30 208 9 165 147
M  V30 209 1 190 200
M  V30 210 2 190 197
M  V30 211 1 191 190
M  V30 212 2 192 191
M  V30 213 1 192 194
M  V30 214 1 193 191
M  V30 215 2 194 196
M  V30 216 1 195 192
M  V30 217 1 196 197
M  V30 218 1 196 198
M  V30 219 1 197 199
M  V30 220 2 201 195
M  V30 221 1 202 195
M  V30 222 1 203 213
M  V30 223 2 203 210
M  V30 224 1 204 203
M  V30 225 2 205 204
M  V30 226 1 205 207
M  V30 227 1 206 204
M  V30 228 2 207 209
M  V30 229 1 208 205
M  V30 230 1 209 210
M  V30 231 1 209 211
M  V30 232 1 210 212
M  V30 233 2 214 208
M  V30 234 1 215 208
M  V30 235 1 216 214
M  V30 236 1 217 227
M  V30 237 2 217 224
M  V30 238 1 218 217
M  V30 239 2 219 218
M  V30 240 1 219 221
M  V30 241 1 220 218
M  V30 242 2 221 223
M  V30 243 1 222 219
M  V30 244 1 223 224
M  V30 245 1 223 225
M  V30 246 1 224 226
M  V30 247 2 228 222
M  V30 248 1 229 222
M  V30 249 1 230 228
M  V30 250 9 201 189
M  V30 251 9 194 189
M  V30 252 9 228 189
M  V30 253 9 221 189
M  V30 254 9 214 189
M  V30 255 9 207 189
M  V30 256 1 24 75
M  V30 257 1 30 117
M  V30 258 1 9 159
M  V30 259 1 1 201
M  V30 END BOND
M  V30 END CTAB
M  END

$$$$
