
     RDKit          3D

  0  0  0  0  0  0  0  0  0  0999 V3000
M  V30 BEGIN CTAB
M  V30 COUNTS 236 268 0 0 0
M  V30 BEGIN ATOM
M  V30 1 C 5.8716 5.5024 0.4612 0
M  V30 2 C 5.5831 4.3753 1.2321 0
M  V30 3 C 4.4096 3.6710 1.0396 0
M  V30 4 C 3.4848 4.0512 0.0647 0
M  V30 5 C 2.2096 3.3330 -0.1206 0
M  V30 6 C 1.0425 4.0313 -0.3381 0
M  V30 7 C -0.1901 3.3657 -0.4844 0
M  V30 8 C -1.3698 4.1056 -0.6928 0
M  V30 9 C -2.5904 3.4831 -0.8382 0
M  V30 10 C -3.8094 4.2803 -1.0814 0
M  V30 11 C -5.0394 3.9451 -0.5122 0
M  V30 12 C -6.1758 4.6926 -0.7598 0
M  V30 13 C -6.1212 5.8287 -1.5719 0
M  V30 14 C -4.8863 6.1945 -2.1112 0
M  V30 15 C -3.7634 5.4247 -1.8848 0
M  V30 16 C -2.6368 2.0788 -0.7452 0
M  V30 17 C -1.5076 1.3025 -0.5378 0
M  V30 18 C -1.5623 -0.1577 -0.4259 0
M  V30 19 C -2.7551 -0.8641 -0.4263 0
M  V30 20 C -2.8066 -2.2667 -0.3283 0
M  V30 21 C -4.0849 -3.0022 -0.3197 0
M  V30 22 C -4.2579 -4.1115 0.5137 0
M  V30 23 C -5.4288 -4.8425 0.5096 0
M  V30 24 C -6.4906 -4.4710 -0.3156 0
M  V30 25 C -6.3249 -3.3644 -1.1536 0
M  V30 26 C -5.1415 -2.6518 -1.1601 0
M  V30 27 C -1.6222 -2.9641 -0.2546 0
M  V30 28 C -0.3834 -2.2982 -0.2567 0
M  V30 29 C 0.8101 -3.0411 -0.2058 0
M  V30 30 C 2.0402 -2.4211 -0.2128 0
M  V30 31 C 3.2746 -3.2255 -0.1900 0
M  V30 32 C 3.3404 -4.4474 -0.8685 0
M  V30 33 C 4.4753 -5.2307 -0.8371 0
M  V30 34 C 5.6170 -4.8012 -0.1575 0
M  V30 35 C 5.5604 -3.5838 0.5272 0
M  V30 36 C 4.4073 -2.8230 0.5208 0
M  V30 37 C 2.0755 -1.0146 -0.2340 0
M  V30 38 C 0.9293 -0.2371 -0.2660 0
M  V30 39 C 0.9724 1.2250 -0.2570 0
M  V30 40 C 2.1521 1.9291 -0.0827 0
M  V30 41 C -0.2426 1.9464 -0.4268 0
M  V30 42 C -0.3397 -0.8792 -0.3148 0
M  V30 43 C 3.7952 5.1609 -0.7243 0
M  V30 44 C 4.9584 5.8773 -0.5292 0
M  V30 45 H 6.2606 4.0911 2.0234 0
M  V30 46 H 4.1884 2.8320 1.6827 0
M  V30 47 H 1.0505 5.1107 -0.3682 0
M  V30 48 H -1.2982 5.1827 -0.7169 0
M  V30 49 H -5.1085 3.0961 0.1510 0
M  V30 50 H -7.1080 4.4194 -0.2863 0
M  V30 51 H -4.8316 7.0623 -2.7511 0
M  V30 52 H -2.8354 5.7024 -2.3606 0
M  V30 53 H -3.5983 1.6072 -0.8695 0
M  V30 54 H -3.6947 -0.3376 -0.4769 0
M  V30 55 H -3.4680 -4.3894 1.1948 0
M  V30 56 H -5.5513 -5.6784 1.1817 0
M  V30 57 H -7.1167 -3.0902 -1.8355 0
M  V30 58 H -5.0294 -1.8238 -1.8436 0
M  V30 59 H -1.6254 -4.0436 -0.2226 0
M  V30 60 H 0.7380 -4.1167 -0.1424 0
M  V30 61 H 2.4936 -4.7755 -1.4513 0
M  V30 62 H 4.5113 -6.1610 -1.3835 0
M  V30 63 H 6.4137 -3.2586 1.1054 0
M  V30 64 H 4.3796 -1.9079 1.0930 0
M  V30 65 H 3.0449 -0.5435 -0.2596 0
M  V30 66 H 3.0802 1.4011 0.0679 0
M  V30 67 H 3.1203 5.4603 -1.5112 0
M  V30 68 H 5.1817 6.7165 -1.1714 0
M  V30 69 Zn -8.1463 -7.2979 -0.5594 0 CHG=2
M  V30 70 C -12.4743 -5.1424 -0.0927 0
M  V30 71 C -11.2614 -4.4698 -0.1137 0
M  V30 72 C -10.0806 -5.2024 -0.2327 0
M  V30 73 H -11.2260 -3.3943 -0.0366 0
M  V30 74 N -10.0815 -6.5415 -0.3278 0
M  V30 75 C -8.7925 -4.5389 -0.2426 0
M  V30 76 C -11.2429 -7.1792 -0.3035 0
M  V30 77 C -12.4645 -6.5259 -0.1878 0
M  V30 78 H -11.2027 -8.2567 -0.3754 0
M  V30 79 H -13.3826 -7.0909 -0.1726 0
M  V30 80 H -13.4037 -4.6018 -0.0028 0
M  V30 81 N -7.6925 -5.1892 -0.2788 0
M  V30 82 H -8.8088 -3.4498 -0.1875 0
M  V30 83 C -7.3897 -8.9102 4.0256 0
M  V30 84 C -6.4610 -9.0023 2.9963 0
M  V30 85 C -6.7868 -8.4809 1.7470 0
M  V30 86 H -5.5039 -9.4737 3.1582 0
M  V30 87 N -7.9669 -7.8900 1.5003 0
M  V30 88 C -5.8552 -8.5497 0.6280 0
M  V30 89 C -8.8468 -7.8052 2.4837 0
M  V30 90 C -8.6052 -8.2994 3.7634 0
M  V30 91 H -9.7883 -7.3286 2.2508 0
M  V30 92 H -9.3583 -8.2092 4.5299 0
M  V30 93 H -7.1694 -9.3085 5.0040 0
M  V30 94 N -6.1685 -8.0294 -0.4836 0
M  V30 95 H -4.9079 -9.0564 0.8149 0
M  V30 96 H -5.4804 -8.1112 -1.2255 0
M  V30 97 C -9.6109 -11.5668 -2.5591 0
M  V30 98 C -9.2763 -10.4284 -3.2820 0
M  V30 99 C -8.8860 -9.2832 -2.5922 0
M  V30 100 H -9.3169 -10.4290 -4.3604 0
M  V30 101 N -8.8201 -9.2354 -1.2507 0
M  V30 102 C -8.5252 -8.0644 -3.3017 0
M  V30 103 C -9.1461 -10.3220 -0.5697 0
M  V30 104 C -9.5463 -11.5100 -1.1760 0
M  V30 105 H -9.0931 -10.2500 0.5081 0
M  V30 106 H -9.8030 -12.3662 -0.5727 0
M  V30 107 H -9.9161 -12.4704 -3.0642 0
M  V30 108 N -8.1355 -7.0449 -2.6539 0
M  V30 109 H -8.6099 -8.0918 -4.3877 0
M  V30 110 H -7.9024 -6.2343 -3.2200 0
M  V30 111 Zn 9.1221 5.6580 0.7208 0 CHG=2
M  V30 112 C 9.2225 10.4697 1.1714 0
M  V30 113 C 8.0695 9.7232 0.9731 0
M  V30 114 C 8.1655 8.3341 0.8904 0
M  V30 115 H 7.1098 10.2081 0.8846 0
M  V30 116 N 9.3441 7.6975 0.9938 0
M  V30 117 C 6.9857 7.5122 0.7024 0
M  V30 118 C 10.4413 8.4155 1.1889 0
M  V30 119 C 10.4325 9.8017 1.2861 0
M  V30 120 H 11.3676 7.8649 1.2753 0
M  V30 121 H 11.3529 10.3400 1.4466 0
M  V30 122 H 9.1782 11.5459 1.2367 0
M  V30 123 N 7.0455 6.2339 0.6869 0
M  V30 124 H 6.0379 8.0414 0.6039 0
M  V30 125 C 9.2947 4.2173 5.4256 0
M  V30 126 C 9.0832 3.3633 4.3505 0
M  V30 127 C 9.0533 3.8951 3.0639 0
M  V30 128 H 8.9464 2.3043 4.5066 0
M  V30 129 N 9.2170 5.2055 2.8248 0
M  V30 130 C 8.8403 3.0500 1.8962 0
M  V30 131 C 9.4195 6.0135 3.8511 0
M  V30 132 C 9.4680 5.5677 5.1702 0
M  V30 133 H 9.5536 7.0613 3.6231 0
M  V30 134 H 9.6408 6.2671 5.9725 0
M  V30 135 H 9.3262 3.8361 6.4347 0
M  V30 136 N 8.7852 3.5689 0.7426 0
M  V30 137 H 8.7315 1.9810 2.0860 0
M  V30 138 H 8.6318 2.9323 -0.0326 0
M  V30 139 C 13.8374 4.8780 -0.5291 0
M  V30 140 C 12.8179 5.1619 -1.4293 0
M  V30 141 C 11.5276 5.3611 -0.9442 0
M  V30 142 H 13.0200 5.2288 -2.4873 0
M  V30 143 N 11.2296 5.2894 0.3638 0
M  V30 144 C 10.4225 5.6618 -1.8445 0
M  V30 145 C 12.2073 5.0252 1.2152 0
M  V30 146 C 13.5248 4.8106 0.8193 0
M  V30 147 H 11.9376 4.9859 2.2617 0
M  V30 148 H 14.2845 4.6018 1.5556 0
M  V30 149 H 14.8478 4.7191 -0.8734 0
M  V30 150 N 9.2473 5.7868 -1.3833 0
M  V30 151 H 10.6704 5.7649 -2.9006 0
M  V30 152 H 8.5314 6.0012 -2.0717 0
M  V30 153 Zn 7.0526 -7.7221 0.1433 0 CHG=2
M  V30 154 C 11.4897 -6.0012 -0.8516 0
M  V30 155 C 10.3492 -5.2159 -0.7728 0
M  V30 156 C 9.1302 -5.8166 -0.4573 0
M  V30 157 H 10.3976 -4.1545 -0.9601 0
M  V30 158 N 9.0290 -7.1356 -0.2300 0
M  V30 159 C 7.9100 -5.0370 -0.3822 0
M  V30 160 C 10.1224 -7.8807 -0.3032 0
M  V30 161 C 11.3750 -7.3616 -0.6077 0
M  V30 162 H 9.9999 -8.9362 -0.1059 0
M  V30 163 H 12.2354 -8.0097 -0.6526 0
M  V30 164 H 12.4453 -5.5645 -1.0975 0
M  V30 165 N 6.7709 -5.5879 -0.2011 0
M  V30 166 H 8.0104 -3.9615 -0.5323 0
M  V30 167 C 7.2388 -7.2908 5.0588 0
M  V30 168 C 6.0768 -7.5171 4.3321 0
M  V30 169 C 6.1570 -7.6061 2.9445 0
M  V30 170 H 5.1280 -7.6324 4.8327 0
M  V30 171 N 7.3153 -7.4677 2.2814 0
M  V30 172 C 4.9795 -7.8849 2.1325 0
M  V30 173 C 8.4182 -7.2532 2.9789 0
M  V30 174 C 8.4329 -7.1604 4.3681 0
M  V30 175 H 9.3358 -7.1594 2.4155 0
M  V30 176 H 9.3623 -6.9979 4.8900 0
M  V30 177 H 7.2118 -7.2269 6.1357 0
M  V30 178 N 5.0883 -7.9788 0.8742 0
M  V30 179 H 4.0400 -8.0133 2.6704 0
M  V30 180 H 4.2332 -8.1922 0.3703 0
M  V30 181 C 7.8876 -12.5547 -0.1986 0
M  V30 182 C 7.5212 -11.7376 -1.2615 0
M  V30 183 C 7.3118 -10.3811 -1.0266 0
M  V30 184 H 7.4003 -12.1453 -2.2534 0
M  V30 185 N 7.4535 -9.8291 0.1911 0
M  V30 186 C 6.9276 -9.4785 -2.1026 0
M  V30 187 C 7.8058 -10.6131 1.1969 0
M  V30 188 C 8.0327 -11.9796 1.0538 0
M  V30 189 H 7.9198 -10.1391 2.1618 0
M  V30 190 H 8.3201 -12.5726 1.9074 0
M  V30 191 H 8.0575 -13.6099 -0.3479 0
M  V30 192 N 6.6918 -8.2570 -1.8497 0
M  V30 193 H 6.8576 -9.9113 -3.1000 0
M  V30 194 H 6.4404 -7.6882 -2.6533 0
M  V30 195 Zn -7.5677 8.7581 -1.7713 0 CHG=2
M  V30 196 C -11.8242 6.9288 -3.2270 0
M  V30 197 C -10.7117 6.1596 -2.9175 0
M  V30 198 C -9.5457 6.7927 -2.4868 0
M  V30 199 H -10.7429 5.0855 -3.0133 0
M  V30 200 N -9.4686 8.1277 -2.3673 0
M  V30 201 C -8.3551 6.0290 -2.1620 0
M  V30 202 C -10.5353 8.8574 -2.6595 0
M  V30 203 C -11.7362 8.3060 -3.0904 0
M  V30 204 H -10.4342 9.9269 -2.5410 0
M  V30 205 H -12.5775 8.9427 -3.3126 0
M  V30 206 H -12.7384 6.4662 -3.5656 0
M  V30 207 N -7.2501 6.5997 -1.8683 0
M  V30 208 H -8.4451 4.9436 -2.2196 0
M  V30 209 C -8.4085 8.6158 3.0865 0
M  V30 210 C -7.1615 8.8168 2.5087 0
M  V30 211 C -7.0584 8.8383 1.1201 0
M  V30 212 H -6.2864 8.9626 3.1229 0
M  V30 213 N -8.1197 8.6602 0.3185 0
M  V30 214 C -5.7840 9.0841 0.4573 0
M  V30 215 C -9.3049 8.4729 0.8746 0
M  V30 216 C -9.5018 8.4454 2.2525 0
M  V30 217 H -10.1409 8.3476 0.2010 0
M  V30 218 H -10.4916 8.3005 2.6552 0
M  V30 219 H -8.5229 8.6015 4.1594 0
M  V30 220 N -5.7218 9.0964 -0.8077 0
M  V30 221 H -4.9266 9.2613 1.1068 0
M  V30 222 H -4.8079 9.2936 -1.2039 0
M  V30 223 C -8.2006 13.5642 -2.5849 0
M  V30 224 C -7.7151 12.6608 -3.5226 0
M  V30 225 C -7.5996 11.3192 -3.1675 0
M  V30 226 H -7.4298 12.9913 -4.5095 0
M  V30 227 N -7.9430 10.8627 -1.9505 0
M  V30 228 C -7.0983 10.3285 -4.1095 0
M  V30 229 C -8.4122 11.7277 -1.0663 0
M  V30 230 C -8.5584 13.0863 -1.3344 0
M  V30 231 H -8.6911 11.3281 -0.1012 0
M  V30 232 H -8.9472 13.7485 -0.5772 0
M  V30 233 H -8.2992 14.6110 -2.8281 0
M  V30 234 N -6.9347 9.1262 -3.7362 0
M  V30 235 H -6.8813 10.6810 -5.1173 0
M  V30 236 H -6.5945 8.4916 -4.4532 0
M  V30 END ATOM
M  V30 BEGIN BOND
M  V30 1 2 1 2
M  V30 2 1 2 3
M  V30 3 2 3 4
M  V30 4 1 4 5
M  V30 5 2 5 6
M  V30 6 1 6 7
M  V30 7 2 7 8
M  V30 8 1 8 9
M  V30 9 1 9 10
M  V30 10 2 10 11
M  V30 11 1 11 12
M  V30 12 2 12 13
M  V30 13 1 13 14
M  V30 14 2 14 15
M  V30 15 2 9 16
M  V30 16 1 16 17
M  V30 17 1 17 18
M  V30 18 2 18 19
M  V30 19 1 19 20
M  V30 20 1 20 21
M  V30 21 2 21 22
M  V30 22 1 22 23
M  V30 23 2 23 24
M  V30 24 1 24 25
M  V30 25 2 25 26
M  V30 26 2 20 27
M  V30 27 1 27 28
M  V30 28 1 28 29
M  V30 29 2 29 30
M  V30 30 1 30 31
M  V30 31 2 31 32
M  V30 32 1 32 33
M  V30 33 2 33 34
M  V30 34 1 34 35
M  V30 35 2 35 36
M  V30 36 1 30 37
M  V30 37 2 37 38
M  V30 38 1 38 39
M  V30 39 2 39 40
M  V30 40 1 39 41
M  V30 41 1 38 42
M  V30 42 1 4 43
M  V30 43 2 43 44
M  V30 44 1 44 1
M  V30 45 1 40 5
M  V30 46 1 41 7
M  V30 47 1 15 10
M  V30 48 2 41 17
M  V30 49 1 42 18
M  V30 50 1 26 21
M  V30 51 2 42 28
M  V30 52 1 36 31
M  V30 53 1 2 45
M  V30 54 1 3 46
M  V30 55 1 6 47
M  V30 56 1 8 48
M  V30 57 1 11 49
M  V30 58 1 12 50
M  V30 59 1 14 51
M  V30 60 1 15 52
M  V30 61 1 16 53
M  V30 62 1 19 54
M  V30 63 1 22 55
M  V30 64 1 23 56
M  V30 65 1 25 57
M  V30 66 1 26 58
M  V30 67 1 27 59
M  V30 68 1 29 60
M  V30 69 1 32 61
M  V30 70 1 33 62
M  V30 71 1 35 63
M  V30 72 1 36 64
M  V30 73 1 37 65
M  V30 74 1 40 66
M  V30 75 1 43 67
M  V30 76 1 44 68
M  V30 77 1 70 80
M  V30 78 2 70 77
M  V30 79 1 71 70
M  V30 80 2 72 71
M  V30 81 1 72 74
M  V30 82 1 73 71
M  V30 83 2 74 76
M  V30 84 1 75 72
M  V30 85 1 76 77
M  V30 86 1 76 78
M  V30 87 1 77 79
M  V30 88 2 81 75
M  V30 89 1 82 75
M  V30 90 1 83 93
M  V30 91 2 83 90
M  V30 92 1 84 83
M  V30 93 2 85 84
M  V30 94 1 85 87
M  V30 95 1 86 84
M  V30 96 2 87 89
M  V30 97 1 88 85
M  V30 98 1 89 90
M  V30 99 1 89 91
M  V30 100 1 90 92
M  V30 101 2 94 88
M  V30 102 1 95 88
M  V30 103 1 96 94
M  V30 104 1 97 107
M  V30 105 2 97 104
M  V30 106 1 98 97
M  V30 107 2 99 98
M  V30 108 1 99 101
M  V30 109 1 100 98
M  V30 110 2 101 103
M  V30 111 1 102 99
M  V30 112 1 103 104
M  V30 113 1 103 105
M  V30 114 1 104 106
M  V30 115 2 108 102
M  V30 116 1 109 102
M  V30 117 1 110 108
M  V30 118 9 81 69
M  V30 119 9 74 69
M  V30 120 9 94 69
M  V30 121 9 87 69
M  V30 122 9 108 69
M  V30 123 9 101 69
M  V30 124 1 112 122
M  V30 125 2 112 119
M  V30 126 1 113 112
M  V30 127 2 114 113
M  V30 128 1 114 116
M  V30 129 1 115 113
M  V30 130 2 116 118
M  V30 131 1 117 114
M  V30 132 1 118 119
M  V30 133 1 118 120
M  V30 134 1 119 121
M  V30 135 2 123 117
M  V30 136 1 124 117
M  V30 137 1 125 135
M  V30 138 2 125 132
M  V30 139 1 126 125
M  V30 140 2 127 126
M  V30 141 1 127 129
M  V30 142 1 128 126
M  V30 143 2 129 131
M  V30 144 1 130 127
M  V30 145 1 131 132
M  V30 146 1 131 133
M  V30 147 1 132 134
M  V30 148 2 136 130
M  V30 149 1 137 130
M  V30 150 1 138 136
M  V30 151 1 139 149
M  V30 152 2 139 146
M  V30 153 1 140 139
M  V30 154 2 141 140
M  V30 155 1 141 143
M  V30 156 1 142 140
M  V30 157 2 143 145
M  V30 158 1 144 141
M  V30 159 1 145 146
M  V30 160 1 145 147
M  V30 161 1 146 148
M  V30 162 2 150 144
M  V30 163 1 151 144
M  V30 164 1 152 150
M  V30 165 9 123 111
M  V30 166 9 116 111
M  V30 167 9 150 111
M  V30 168 9 143 111
M  V30 169 9 136 111
M  V30 170 9 129 111
M  V30 171 1 154 164
M  V30 172 2 154 161
M  V30 173 1 155 154
M  V30 174 2 156 155
M  V30 175 1 156 158
M  V30 176 1 157 155
M  V30 177 2 158 160
M  V30 178 1 159 156
M  V30 179 1 160 161
M  V30 180 1 160 162
M  V30 181 1 161 163
M  V30 182 2 165 159
M  V30 183 1 166 159
M  V30 184 1 167 177
M  V30 185 2 167 174
M  V30 186 1 168 167
M  V30 187 2 169 168
M  V30 188 1 169 171
M  V30 189 1 170 168
M  V30 190 2 171 173
M  V30 191 1 172 169
M  V30 192 1 173 174
M  V30 193 1 173 175
M  V30 194 1 174 176
M  V30 195 2 178 172
M  V30 196 1 179 172
M  V30 197 1 180 178
M  V30 198 1 181 191
M  V30 199 2 181 188
M  V30 200 1 182 181
M  V30 201 2 183 182
M  V30 202 1 183 185
M  V30 203 1 184 182
M  V30 204 2 185 187
M  V30 205 1 186 183
M  V30 206 1 187 188
M  V30 207 1 187 189
M  V30 208 1 188 190
M  V30 209 2 192 186
M  V30 210 1 193 186
M  V30 211 1 194 192
M  V30 212 9 165 153
M  V30 213 9 158 153
M  V30 214 9 192 153
M  V30 215 9 185 153
M  V30 216 9 178 153
M  V30 217 9 171 153
M  V30 218 1 196 206
M  V30 219 2 196 203
M  V30 220 1 197 196
M  V30 221 2 198 197
M  V30 222 1 198 200
M  V30 223 1 199 197
M  V30 224 2 200 202
M  V30 225 1 201 198
M  V30 226 1 202 203
M  V30 227 1 202 204
M  V30 228 1 203 205
M  V30 229 2 207 201
M  V30 230 1 208 201
M  V30 231 1 209 219
M  V30 232 2 209 216
M  V30 233 1 210 209
M  V30 234 2 211 210
M  V30 235 1 211 213
M  V30 236 1 212 210
M  V30 237 2 213 215
M  V30 238 1 214 211
M  V30 239 1 215 216
M  V30 240 1 215 217
M  V30 241 1 216 218
M  V30 242 2 220 214
M  V30 243 1 221 214
M  V30 244 1 222 220
M  V30 245 1 223 233
M  V30 246 2 223 230
M  V30 247 1 224 223
M  V30 248 2 225 224
M  V30 249 1 225 227
M  V30 250 1 226 224
M  V30 251 2 227 229
M  V30 252 1 228 225
M  V30 253 1 229 230
M  V30 254 1 229 231
M  V30 255 1 230 232
M  V30 256 2 234 228
M  V30 257 1 235 228
M  V30 258 1 236 234
M  V30 259 9 207 195
M  V30 260 9 200 195
M  V30 261 9 234 195
M  V30 262 9 227 195
M  V30 263 9 220 195
M  V30 264 9 213 195
M  V30 265 1 1 123
M  V30 266 1 34 165
M  V30 267 1 24 81
M  V30 268 1 13 207
M  V30 END BOND
M  V30 END CTAB
M  END

$$$$
