
     RDKit          3D

  0  0  0  0  0  0  0  0  0  0999 V3000
M  V30 BEGIN CTAB
M  V30 COUNTS 226 255 0 0 0
M  V30 BEGIN ATOM
M  V30 1 C -4.4726 -4.5624 -0.8001 0
M  V30 2 C -3.4252 -4.9727 0.0276 0
M  V30 3 C -2.2643 -4.2296 0.1106 0
M  V30 4 C -2.0893 -3.0652 -0.6402 0
M  V30 5 C -0.8258 -2.3073 -0.5582 0
M  V30 6 C 0.3891 -2.9823 -0.4891 0
M  V30 7 C 1.5871 -2.2812 -0.3777 0
M  V30 8 C 2.8630 -3.0274 -0.3491 0
M  V30 9 C 3.9173 -2.6637 0.4897 0
M  V30 10 C 5.1073 -3.3684 0.4968 0
M  V30 11 C 5.2818 -4.4861 -0.3241 0
M  V30 12 C 4.2186 -4.8762 -1.1406 0
M  V30 13 C 3.0448 -4.1500 -1.1631 0
M  V30 14 C 1.5492 -0.8888 -0.3014 0
M  V30 15 C 0.3501 -0.1738 -0.3904 0
M  V30 16 C 0.3096 1.3101 -0.3360 0
M  V30 17 C -0.8989 1.9942 -0.1757 0
M  V30 18 C -0.9703 3.3856 -0.1570 0
M  V30 19 C -2.2786 4.0664 -0.0508 0
M  V30 20 C -2.4561 5.1954 0.7508 0
M  V30 21 C -3.6698 5.8554 0.8086 0
M  V30 22 C -4.7661 5.4009 0.0706 0
M  V30 23 C -4.6064 4.2498 -0.7039 0
M  V30 24 C -3.3854 3.6072 -0.7705 0
M  V30 25 C 0.2078 4.1212 -0.2610 0
M  V30 26 C 1.4350 3.4758 -0.3966 0
M  V30 27 C 2.6826 4.2655 -0.4759 0
M  V30 28 C 2.7574 5.4220 -1.2528 0
M  V30 29 C 3.9068 6.1877 -1.2896 0
M  V30 30 C 5.0361 5.8211 -0.5518 0
M  V30 31 C 4.9775 4.6494 0.2036 0
M  V30 32 C 3.8207 3.8937 0.2430 0
M  V30 33 C 1.4682 2.0832 -0.4486 0
M  V30 34 C -0.8253 -0.9152 -0.5378 0
M  V30 35 C -3.1479 -2.6534 -1.4533 0
M  V30 36 C -4.3226 -3.3770 -1.5224 0
M  V30 37 H -3.5385 -5.8595 0.6336 0
M  V30 38 H -1.4822 -4.5535 0.7799 0
M  V30 39 H 0.4019 -4.0606 -0.5274 0
M  V30 40 H 3.8003 -1.8272 1.1623 0
M  V30 41 H 5.8952 -3.0777 1.1767 0
M  V30 42 H 4.3439 -5.7291 -1.7901 0
M  V30 43 H 2.2614 -4.4451 -1.8444 0
M  V30 44 H 2.4844 -0.3639 -0.1897 0
M  V30 45 H -1.8182 1.4489 -0.0319 0
M  V30 46 H -1.6342 5.5605 1.3473 0
M  V30 47 H -3.7777 6.7136 1.4551 0
M  V30 48 H -5.4386 3.9010 -1.2982 0
M  V30 49 H -3.2753 2.7535 -1.4228 0
M  V30 50 H 0.1704 5.1996 -0.2387 0
M  V30 51 H 1.9089 5.7224 -1.8482 0
M  V30 52 H 3.9416 7.0636 -1.9202 0
M  V30 53 H 5.8303 4.3653 0.8015 0
M  V30 54 H 3.7872 3.0164 0.8720 0
M  V30 55 H 2.4237 1.6105 -0.6119 0
M  V30 56 H -1.7755 -0.4138 -0.6239 0
M  V30 57 H -3.0357 -1.7717 -2.0664 0
M  V30 58 H -5.1184 -3.0614 -2.1809 0
M  V30 59 Zn -8.0217 5.3037 0.2766 0 CHG=2
M  V30 60 C -8.5937 10.0702 -0.2159 0
M  V30 61 C -7.3618 9.4313 -0.1688 0
M  V30 62 C -7.3195 8.0459 -0.0122 0
M  V30 63 H -6.4476 9.9974 -0.2566 0
M  V30 64 N -8.4403 7.3117 0.0954 0
M  V30 65 C -6.0554 7.3331 0.0172 0
M  V30 66 C -9.6138 7.9279 0.0541 0
M  V30 67 C -9.7433 9.3028 -0.1001 0
M  V30 68 H -10.4902 7.3022 0.1517 0
M  V30 69 H -10.7216 9.7559 -0.1277 0
M  V30 70 H -8.6556 11.1404 -0.3397 0
M  V30 71 N -6.0055 6.0557 0.0710 0
M  V30 72 H -5.1544 7.9421 -0.0516 0
M  V30 73 C -7.7419 5.2594 5.2116 0
M  V30 74 C -7.3034 4.2300 4.3884 0
M  V30 75 C -7.4721 4.3503 3.0110 0
M  V30 76 H -6.8438 3.3478 4.8067 0
M  V30 77 N -8.0318 5.4318 2.4456 0
M  V30 78 C -7.0689 3.2899 2.1030 0
M  V30 79 C -8.4505 6.4065 3.2344 0
M  V30 80 C -8.3325 6.3657 4.6228 0
M  V30 81 H -8.9078 7.2586 2.7520 0
M  V30 82 H -8.6982 7.1847 5.2217 0
M  V30 83 H -7.6295 5.1954 6.2830 0
M  V30 84 N -7.2801 3.4013 0.8582 0
M  V30 85 H -6.5990 2.4173 2.5596 0
M  V30 86 H -6.9763 2.6245 0.2813 0
M  V30 87 C -12.6681 3.8304 -0.5030 0
M  V30 88 C -11.7358 4.0633 -1.5065 0
M  V30 89 C -10.4439 4.4423 -1.1498 0
M  V30 90 H -12.0067 3.9594 -2.5460 0
M  V30 91 N -10.0638 4.5941 0.1301 0
M  V30 92 C -9.4260 4.7017 -2.1598 0
M  V30 93 C -10.9578 4.3730 1.0798 0
M  V30 94 C -12.2695 3.9869 0.8151 0
M  V30 95 H -10.6241 4.5130 2.0984 0
M  V30 96 H -12.9610 3.8253 1.6267 0
M  V30 97 H -13.6795 3.5427 -0.7467 0
M  V30 98 N -8.2391 4.9695 -1.8010 0
M  V30 99 H -9.7456 4.6472 -3.2002 0
M  V30 100 H -7.5877 5.1581 -2.5581 0
M  V30 101 Zn 8.2825 6.1454 -0.9659 0 CHG=2
M  V30 102 C 8.2303 10.9359 -0.3212 0
M  V30 103 C 7.1001 10.1300 -0.2984 0
M  V30 104 C 7.2429 8.7541 -0.4781 0
M  V30 105 H 6.1229 10.5600 -0.1431 0
M  V30 106 N 8.4445 8.1854 -0.6740 0
M  V30 107 C 6.0910 7.8736 -0.4479 0
M  V30 108 C 9.5204 8.9592 -0.6920 0
M  V30 109 C 9.4656 10.3377 -0.5196 0
M  V30 110 H 10.4682 8.4629 -0.8458 0
M  V30 111 H 10.3710 10.9232 -0.5413 0
M  V30 112 H 8.1493 12.0035 -0.1863 0
M  V30 113 N 6.2007 6.6035 -0.5539 0
M  V30 114 H 5.1226 8.3530 -0.3023 0
M  V30 115 C 9.5515 4.6530 3.5596 0
M  V30 116 C 9.1999 3.8011 2.5203 0
M  V30 117 C 8.8407 4.3494 1.2915 0
M  V30 118 H 9.2067 2.7308 2.6584 0
M  V30 119 N 8.8213 5.6738 1.0746 0
M  V30 120 C 8.4614 3.5077 0.1646 0
M  V30 121 C 9.1580 6.4800 2.0664 0
M  V30 122 C 9.5298 6.0185 3.3276 0
M  V30 123 H 9.1380 7.5400 1.8578 0
M  V30 124 H 9.7987 6.7181 4.1030 0
M  V30 125 H 9.8376 4.2596 4.5229 0
M  V30 126 N 8.0963 4.0379 -0.9257 0
M  V30 127 H 8.5075 2.4298 0.3281 0
M  V30 128 H 7.8433 3.4021 -1.6751 0
M  V30 129 C 12.6894 5.6073 -3.1412 0
M  V30 130 C 11.4982 5.8541 -3.8125 0
M  V30 131 C 10.3246 5.9896 -3.0744 0
M  V30 132 H 11.4797 5.9407 -4.8880 0
M  V30 133 N 10.2994 5.8917 -1.7343 0
M  V30 134 C 9.0497 6.2475 -3.7291 0
M  V30 135 C 11.4394 5.6638 -1.1023 0
M  V30 136 C 12.6579 5.5125 -1.7590 0
M  V30 137 H 11.3892 5.6027 -0.0238 0
M  V30 138 H 13.5586 5.3310 -1.1944 0
M  V30 139 H 13.6155 5.4975 -3.6845 0
M  V30 140 N 7.9843 6.3076 -3.0419 0
M  V30 141 H 9.0766 6.3771 -4.8106 0
M  V30 142 H 7.1383 6.4968 -3.5718 0
M  V30 143 Zn 6.8530 -7.3825 -0.2510 0 CHG=2
M  V30 144 C 11.2504 -5.3511 -0.6458 0
M  V30 145 C 10.0670 -4.6306 -0.5706 0
M  V30 146 C 8.8583 -5.3170 -0.4531 0
M  V30 147 H 10.0771 -3.5524 -0.6069 0
M  V30 148 N 8.8082 -6.6574 -0.4114 0
M  V30 149 C 7.5963 -4.6033 -0.3887 0
M  V30 150 C 9.9406 -7.3413 -0.4824 0
M  V30 151 C 11.1865 -6.7353 -0.5991 0
M  V30 152 H 9.8573 -8.4178 -0.4395 0
M  V30 153 H 12.0803 -7.3363 -0.6515 0
M  V30 154 H 12.1998 -4.8467 -0.7386 0
M  V30 155 N 6.4753 -5.2146 -0.3653 0
M  V30 156 H 7.6566 -3.5138 -0.4025 0
M  V30 157 C 6.6722 -7.4203 4.6835 0
M  V30 158 C 5.5838 -7.6499 3.8514 0
M  V30 159 C 5.7676 -7.5993 2.4717 0
M  V30 160 H 4.6123 -7.8733 4.2642 0
M  V30 161 N 6.9579 -7.3264 1.9147 0
M  V30 162 C 4.6712 -7.8668 1.5507 0
M  V30 163 C 7.9908 -7.1117 2.7124 0
M  V30 164 C 7.9001 -7.1495 4.1014 0
M  V30 165 H 8.9385 -6.9088 2.2338 0
M  V30 166 H 8.7763 -6.9781 4.7062 0
M  V30 167 H 6.5646 -7.4608 5.7564 0
M  V30 168 N 4.8653 -7.8068 0.3002 0
M  V30 169 H 3.7123 -8.1229 2.0015 0
M  V30 170 H 4.0640 -8.0257 -0.2835 0
M  V30 171 C 7.8887 -12.1131 -1.0630 0
M  V30 172 C 7.5647 -11.1918 -2.0520 0
M  V30 173 C 7.2992 -9.8750 -1.6846 0
M  V30 174 H 7.5176 -11.4895 -3.0883 0
M  V30 175 N 7.3478 -9.4576 -0.4067 0
M  V30 176 C 6.9546 -8.8695 -2.6782 0
M  V30 177 C 7.6624 -10.3398 0.5281 0
M  V30 178 C 7.9393 -11.6765 0.2512 0
M  V30 179 H 7.7032 -9.9732 1.5444 0
M  V30 180 H 8.1917 -12.3536 1.0518 0
M  V30 181 H 8.0983 -13.1413 -1.3152 0
M  V30 182 N 6.6570 -7.6902 -2.3113 0
M  V30 183 H 6.9672 -9.1893 -3.7196 0
M  V30 184 H 6.4404 -7.0454 -3.0660 0
M  V30 185 Zn -7.7080 -4.6845 -0.7534 0 CHG=2
M  V30 186 C -7.9399 -9.4552 -1.5222 0
M  V30 187 C -6.7575 -8.7382 -1.3984 0
M  V30 188 C -6.8174 -7.3642 -1.1677 0
M  V30 189 H -5.8032 -9.2341 -1.4835 0
M  V30 190 N -7.9883 -6.7123 -1.0634 0
M  V30 191 C -5.6096 -6.5708 -1.0430 0
M  V30 192 C -9.1139 -7.4028 -1.1807 0
M  V30 193 C -9.1425 -8.7737 -1.4085 0
M  V30 194 H -10.0343 -6.8437 -1.0844 0
M  V30 195 H -10.0855 -9.2899 -1.4934 0
M  V30 196 H -7.9236 -10.5190 -1.7025 0
M  V30 197 N -5.6568 -5.2989 -0.9205 0
M  V30 198 H -4.6636 -7.1093 -1.0954 0
M  V30 199 C -7.5615 -4.9369 4.1882 0
M  V30 200 C -7.1448 -3.8404 3.4442 0
M  V30 201 C -7.2633 -3.8824 2.0570 0
M  V30 202 H -6.7418 -2.9656 3.9310 0
M  V30 203 N -7.7517 -4.9514 1.4089 0
M  V30 204 C -6.8852 -2.7484 1.2287 0
M  V30 205 C -8.1467 -5.9922 2.1221 0
M  V30 206 C -8.0773 -6.0315 3.5135 0
M  V30 207 H -8.5442 -6.8335 1.5726 0
M  V30 208 H -8.4232 -6.9015 4.0487 0
M  V30 209 H -7.4900 -4.9330 5.2649 0
M  V30 210 N -7.0691 -2.7863 -0.0239 0
M  V30 211 H -6.4591 -1.8906 1.7518 0
M  V30 212 H -6.7863 -1.9627 -0.5443 0
M  V30 213 C -12.3971 -3.4507 -1.5549 0
M  V30 214 C -11.4249 -3.5385 -2.5440 0
M  V30 215 C -10.1209 -3.8631 -2.1784 0
M  V30 216 H -11.6742 -3.3650 -3.5795 0
M  V30 217 N -9.7665 -4.0972 -0.9033 0
M  V30 218 C -9.0607 -3.9711 -3.1726 0
M  V30 219 C -10.6974 -4.0112 0.0328 0
M  V30 220 C -12.0239 -3.6890 -0.2416 0
M  V30 221 H -10.3815 -4.2118 1.0470 0
M  V30 222 H -12.7453 -3.6387 0.5585 0
M  V30 223 H -13.4184 -3.2098 -1.8069 0
M  V30 224 N -7.8722 -4.2088 -2.7983 0
M  V30 225 H -9.3506 -3.8342 -4.2139 0
M  V30 226 H -7.1883 -4.2865 -3.5462 0
M  V30 END ATOM
M  V30 BEGIN BOND
M  V30 1 2 1 2
M  V30 2 1 2 3
M  V30 3 2 3 4
M  V30 4 1 4 5
M  V30 5 2 5 6
M  V30 6 1 6 7
M  V30 7 1 7 8
M  V30 8 2 8 9
M  V30 9 1 9 10
M  V30 10 2 10 11
M  V30 11 1 11 12
M  V30 12 2 12 13
M  V30 13 2 7 14
M  V30 14 1 14 15
M  V30 15 1 15 16
M  V30 16 2 16 17
M  V30 17 1 17 18
M  V30 18 1 18 19
M  V30 19 2 19 20
M  V30 20 1 20 21
M  V30 21 2 21 22
M  V30 22 1 22 23
M  V30 23 2 23 24
M  V30 24 2 18 25
M  V30 25 1 25 26
M  V30 26 1 26 27
M  V30 27 2 27 28
M  V30 28 1 28 29
M  V30 29 2 29 30
M  V30 30 1 30 31
M  V30 31 2 31 32
M  V30 32 2 26 33
M  V30 33 2 15 34
M  V30 34 1 4 35
M  V30 35 2 35 36
M  V30 36 1 36 1
M  V30 37 1 34 5
M  V30 38 1 13 8
M  V30 39 1 33 16
M  V30 40 1 24 19
M  V30 41 1 32 27
M  V30 42 1 2 37
M  V30 43 1 3 38
M  V30 44 1 6 39
M  V30 45 1 9 40
M  V30 46 1 10 41
M  V30 47 1 12 42
M  V30 48 1 13 43
M  V30 49 1 14 44
M  V30 50 1 17 45
M  V30 51 1 20 46
M  V30 52 1 21 47
M  V30 53 1 23 48
M  V30 54 1 24 49
M  V30 55 1 25 50
M  V30 56 1 28 51
M  V30 57 1 29 52
M  V30 58 1 31 53
M  V30 59 1 32 54
M  V30 60 1 33 55
M  V30 61 1 34 56
M  V30 62 1 35 57
M  V30 63 1 36 58
M  V30 64 1 60 70
M  V30 65 2 60 67
M  V30 66 1 61 60
M  V30 67 2 62 61
M  V30 68 1 62 64
M  V30 69 1 63 61
M  V30 70 2 64 66
M  V30 71 1 65 62
M  V30 72 1 66 67
M  V30 73 1 66 68
M  V30 74 1 67 69
M  V30 75 2 71 65
M  V30 76 1 72 65
M  V30 77 1 73 83
M  V30 78 2 73 80
M  V30 79 1 74 73
M  V30 80 2 75 74
M  V30 81 1 75 77
M  V30 82 1 76 74
M  V30 83 2 77 79
M  V30 84 1 78 75
M  V30 85 1 79 80
M  V30 86 1 79 81
M  V30 87 1 80 82
M  V30 88 2 84 78
M  V30 89 1 85 78
M  V30 90 1 86 84
M  V30 91 1 87 97
M  V30 92 2 87 94
M  V30 93 1 88 87
M  V30 94 2 89 88
M  V30 95 1 89 91
M  V30 96 1 90 88
M  V30 97 2 91 93
M  V30 98 1 92 89
M  V30 99 1 93 94
M  V30 100 1 93 95
M  V30 101 1 94 96
M  V30 102 2 98 92
M  V30 103 1 99 92
M  V30 104 1 100 98
M  V30 105 9 71 59
M  V30 106 9 64 59
M  V30 107 9 84 59
M  V30 108 9 77 59
M  V30 109 9 98 59
M  V30 110 9 91 59
M  V30 111 1 102 112
M  V30 112 2 102 109
M  V30 113 1 103 102
M  V30 114 2 104 103
M  V30 115 1 104 106
M  V30 116 1 105 103
M  V30 117 2 106 108
M  V30 118 1 107 104
M  V30 119 1 108 109
M  V30 120 1 108 110
M  V30 121 1 109 111
M  V30 122 2 113 107
M  V30 123 1 114 107
M  V30 124 1 115 125
M  V30 125 2 115 122
M  V30 126 1 116 115
M  V30 127 2 117 116
M  V30 128 1 117 119
M  V30 129 1 118 116
M  V30 130 2 119 121
M  V30 131 1 120 117
M  V30 132 1 121 122
M  V30 133 1 121 123
M  V30 134 1 122 124
M  V30 135 2 126 120
M  V30 136 1 127 120
M  V30 137 1 128 126
M  V30 138 1 129 139
M  V30 139 2 129 136
M  V30 140 1 130 129
M  V30 141 2 131 130
M  V30 142 1 131 133
M  V30 143 1 132 130
M  V30 144 2 133 135
M  V30 145 1 134 131
M  V30 146 1 135 136
M  V30 147 1 135 137
M  V30 148 1 136 138
M  V30 149 2 140 134
M  V30 150 1 141 134
M  V30 151 1 142 140
M  V30 152 9 113 101
M  V30 153 9 106 101
M  V30 154 9 140 101
M  V30 155 9 133 101
M  V30 156 9 126 101
M  V30 157 9 119 101
M  V30 158 1 144 154
M  V30 159 2 144 151
M  V30 160 1 145 144
M  V30 161 2 146 145
M  V30 162 1 146 148
M  V30 163 1 147 145
M  V30 164 2 148 150
M  V30 165 1 149 146
M  V30 166 1 150 151
M  V30 167 1 150 152
M  V30 168 1 151 153
M  V30 169 2 155 149
M  V30 170 1 156 149
M  V30 171 1 157 167
M  V30 172 2 157 164
M  V30 173 1 158 157
M  V30 174 2 159 158
M  V30 175 1 159 161
M  V30 176 1 160 158
M  V30 177 2 161 163
M  V30 178 1 162 159
M  V30 179 1 163 164
M  V30 180 1 163 165
M  V30 181 1 164 166
M  V30 182 2 168 162
M  V30 183 1 169 162
M  V30 184 1 170 168
M  V30 185 1 171 181
M  V30 186 2 171 178
M  V30 187 1 172 171
M  V30 188 2 173 172
M  V30 189 1 173 175
M  V30 190 1 174 172
M  V30 191 2 175 177
M  V30 192 1 176 173
M  V30 193 1 177 178
M  V30 194 1 177 179
M  V30 195 1 178 180
M  V30 196 2 182 176
M  V30 197 1 183 176
M  V30 198 1 184 182
M  V30 199 9 155 143
M  V30 200 9 148 143
M  V30 201 9 182 143
M  V30 202 9 175 143
M  V30 203 9 168 143
M  V30 204 9 161 143
M  V30 205 1 186 196
M  V30 206 2 186 193
M  V30 207 1 187 186
M  V30 208 2 188 187
M  V30 209 1 188 190
M  V30 210 1 189 187
M  V30 211 2 190 192
M  V30 212 1 191 188
M  V30 213 1 192 193
M  V30 214 1 192 194
M  V30 215 1 193 195
M  V30 216 2 197 191
M  V30 217 1 198 191
M  V30 218 1 199 209
M  V30 219 2 199 206
M  V30 220 1 200 199
M  V30 221 2 201 200
M  V30 222 1 201 203
M  V30 223 1 202 200
M  V30 224 2 203 205
M  V30 225 1 204 201
M  V30 226 1 205 206
M  V30 227 1 205 207
M  V30 228 1 206 208
M  V30 229 2 210 204
M  V30 230 1 211 204
M  V30 231 1 212 210
M  V30 232 1 213 223
M  V30 233 2 213 220
M  V30 234 1 214 213
M  V30 235 2 215 214
M  V30 236 1 215 217
M  V30 237 1 216 214
M  V30 238 2 217 219
M  V30 239 1 218 215
M  V30 240 1 219 220
M  V30 241 1 219 221
M  V30 242 1 220 222
M  V30 243 2 224 218
M  V30 244 1 225 218
M  V30 245 1 226 224
M  V30 246 9 197 185
M  V30 247 9 190 185
M  V30 248 9 224 185
M  V30 249 9 217 185
M  V30 250 9 210 185
M  V30 251 9 203 185
M  V30 252 1 30 113
M  V30 253 1 11 155
M  V30 254 1 1 197
M  V30 255 1 22 71
M  V30 END BOND
M  V30 END CTAB
M  END

$$$$
