
     RDKit          3D

  0  0  0  0  0  0  0  0  0  0999 V3000
M  V30 BEGIN CTAB
M  V30 COUNTS 220 248 0 0 0
M  V30 BEGIN ATOM
M  V30 1 C 5.0319 3.5766 -0.4343 0
M  V30 2 C 5.4939 2.4572 -1.1342 0
M  V30 3 C 4.7587 1.2931 -1.1822 0
M  V30 4 C 3.5360 1.1742 -0.5056 0
M  V30 5 N 2.8217 -0.0306 -0.5344 0
M  V30 6 C 3.5455 -1.2313 -0.5490 0
M  V30 7 C 4.7344 -1.3569 0.1832 0
M  V30 8 C 5.4807 -2.5153 0.1483 0
M  V30 9 C 5.0674 -3.6203 -0.6020 0
M  V30 10 C 3.8761 -3.4957 -1.3318 0
M  V30 11 C 3.1352 -2.3322 -1.3080 0
M  V30 12 C 1.4095 -0.0349 -0.5441 0
M  V30 13 C 0.6816 -1.0338 0.1083 0
M  V30 14 C -0.7012 -1.0249 0.1188 0
M  V30 15 C -1.4257 -0.0161 -0.5218 0
M  V30 16 N -2.8377 0.0074 -0.4896 0
M  V30 17 C -3.5776 -1.1832 -0.5070 0
M  V30 18 C -3.1911 -2.2811 -1.2826 0
M  V30 19 C -3.9474 -3.4345 -1.3099 0
M  V30 20 C -5.1311 -3.5519 -0.5664 0
M  V30 21 C -5.5204 -2.4499 0.2010 0
M  V30 22 C -4.7588 -1.3015 0.2388 0
M  V30 23 C -3.5328 1.2222 -0.4353 0
M  V30 24 C -4.7655 1.3680 -1.0881 0
M  V30 25 C -5.4807 2.5432 -1.0142 0
M  V30 26 C -4.9880 3.6473 -0.3111 0
M  V30 27 C -3.7531 3.5058 0.3357 0
M  V30 28 C -3.0473 2.3211 0.2818 0
M  V30 29 C -0.6980 0.9728 -1.1899 0
M  V30 30 C 0.6843 0.9634 -1.2012 0
M  V30 31 C 3.0817 2.2881 0.2086 0
M  V30 32 C 3.8072 3.4618 0.2366 0
M  V30 33 H 6.4174 2.5355 -1.6870 0
M  V30 34 H 5.1214 0.4605 -1.7660 0
M  V30 35 H 5.0636 -0.5315 0.7971 0
M  V30 36 H 6.3774 -2.5956 0.7429 0
M  V30 37 H 3.5523 -4.3032 -1.9711 0
M  V30 38 H 2.2368 -2.2617 -1.9020 0
M  V30 39 H 1.2047 -1.8184 0.6340 0
M  V30 40 H -1.2267 -1.8030 0.6518 0
M  V30 41 H -2.2992 -2.2157 -1.8871 0
M  V30 42 H -3.6422 -4.2387 -1.9623 0
M  V30 43 H -6.4107 -2.5250 0.8058 0
M  V30 44 H -5.0696 -0.4788 0.8657 0
M  V30 45 H -5.1522 0.5478 -1.6739 0
M  V30 46 H -6.4127 2.6423 -1.5492 0
M  V30 47 H -3.3651 4.3191 0.9307 0
M  V30 48 H -2.1123 2.2359 0.8144 0
M  V30 49 H -1.2213 1.7518 -1.7234 0
M  V30 50 H 1.2092 1.7350 -1.7439 0
M  V30 51 H 2.1555 2.2237 0.7593 0
M  V30 52 H 3.4433 4.2876 0.8296 0
M  V30 53 Zn 8.0162 -5.1903 -0.6908 0 CHG=2
M  V30 54 C 6.0040 -9.5807 -0.7521 0
M  V30 55 C 5.2836 -8.3953 -0.7422 0
M  V30 56 C 5.9687 -7.1805 -0.6821 0
M  V30 57 H 4.2056 -8.4079 -0.7836 0
M  V30 58 N 7.3103 -7.1284 -0.6329 0
M  V30 59 C 5.2473 -5.9257 -0.6529 0
M  V30 60 C 7.9935 -8.2643 -0.6318 0
M  V30 61 C 7.3880 -9.5141 -0.6897 0
M  V30 62 H 9.0694 -8.1798 -0.5773 0
M  V30 63 H 7.9892 -10.4092 -0.6858 0
M  V30 64 H 5.4999 -10.5332 -0.8039 0
M  V30 65 N 5.8355 -4.7869 -0.5993 0
M  V30 66 H 4.1603 -6.0067 -0.6491 0
M  V30 67 C 9.1070 -4.6515 4.0838 0
M  V30 68 C 9.3746 -3.7027 3.1049 0
M  V30 69 C 8.9810 -3.9584 1.7935 0
M  V30 70 H 9.8845 -2.7845 3.3531 0
M  V30 71 N 8.3523 -5.0909 1.4389 0
M  V30 72 C 9.2343 -3.0047 0.7231 0
M  V30 73 C 8.1054 -5.9925 2.3734 0
M  V30 74 C 8.4604 -5.8184 3.7098 0
M  V30 75 H 7.6089 -6.8976 2.0538 0
M  V30 76 H 8.2399 -6.5867 4.4336 0
M  V30 77 H 9.4020 -4.4849 5.1085 0
M  V30 78 N 8.7797 -3.2257 -0.4390 0
M  V30 79 H 9.8172 -2.1214 0.9883 0
M  V30 80 H 8.9997 -2.5352 -1.1491 0
M  V30 81 C 12.5762 -6.3662 -2.2271 0
M  V30 82 C 11.5043 -6.0775 -3.0633 0
M  V30 83 C 10.2679 -5.7779 -2.4953 0
M  V30 84 H 11.6259 -6.0827 -4.1356 0
M  V30 85 N 10.0686 -5.7606 -1.1655 0
M  V30 86 C 9.1159 -5.4611 -3.3258 0
M  V30 87 C 11.0921 -6.0480 -0.3773 0
M  V30 88 C 12.3633 -6.3538 -0.8577 0
M  V30 89 H 10.8988 -6.0418 0.6868 0
M  V30 90 H 13.1624 -6.5809 -0.1697 0
M  V30 91 H 13.5479 -6.5981 -2.6361 0
M  V30 92 N 8.0193 -5.1094 -2.7893 0
M  V30 93 H 9.2586 -5.5403 -4.4030 0
M  V30 94 H 7.2646 -4.9129 -3.4402 0
M  V30 95 Zn -7.8973 5.2036 -0.0644 0 CHG=2
M  V30 96 C -5.9358 9.6126 -0.4024 0
M  V30 97 C -5.2033 8.4347 -0.4231 0
M  V30 98 C -5.8704 7.2141 -0.3074 0
M  V30 99 H -4.1301 8.4577 -0.5303 0
M  V30 100 N -7.2063 7.1496 -0.1797 0
M  V30 101 C -5.1409 5.9628 -0.3328 0
M  V30 102 C -7.9017 8.2781 -0.1610 0
M  V30 103 C -7.3140 9.5331 -0.2663 0
M  V30 104 H -8.9728 8.1824 -0.0518 0
M  V30 105 H -7.9237 10.4222 -0.2421 0
M  V30 106 H -5.4454 10.5698 -0.4900 0
M  V30 107 N -5.7324 4.8268 -0.2852 0
M  V30 108 H -4.0583 6.0423 -0.4323 0
M  V30 109 C -7.6722 4.8423 4.8630 0
M  V30 110 C -7.9268 3.7788 4.0065 0
M  V30 111 C -7.9774 4.0151 2.6348 0
M  V30 112 H -8.0909 2.7859 4.3961 0
M  V30 113 N -7.7759 5.2322 2.1062 0
M  V30 114 C -8.2849 2.9501 1.6932 0
M  V30 115 C -7.5413 6.2417 2.9268 0
M  V30 116 C -7.4830 6.0991 4.3117 0
M  V30 117 H -7.4017 7.2126 2.4735 0
M  V30 118 H -7.3000 6.9582 4.9374 0
M  V30 119 H -7.6328 4.6935 5.9311 0
M  V30 120 N -8.3081 3.1874 0.4492 0
M  V30 121 H -8.5000 1.9720 2.1264 0
M  V30 122 H -8.5565 2.4082 -0.1513 0
M  V30 123 C -12.6714 6.2025 -0.7308 0
M  V30 124 C -11.7623 5.9578 -1.7535 0
M  V30 125 C -10.4370 5.6827 -1.4250 0
M  V30 126 H -12.0760 5.9792 -2.7860 0
M  V30 127 N -9.9989 5.6505 -0.1534 0
M  V30 128 C -9.4455 5.4104 -2.4549 0
M  V30 129 C -10.8696 5.8915 0.8137 0
M  V30 130 C -12.2142 6.1683 0.5770 0
M  V30 131 H -10.4866 5.8699 1.8246 0
M  V30 132 H -12.8815 6.3579 1.4029 0
M  V30 133 H -13.7057 6.4172 -0.9526 0
M  V30 134 N -8.2659 5.0733 -2.1252 0
M  V30 135 H -9.7771 5.5062 -3.4882 0
M  V30 136 H -7.6294 4.9135 -2.9009 0
M  V30 137 Zn 7.9697 5.0894 -0.2553 0 CHG=2
M  V30 138 C 6.0723 9.5243 -0.6170 0
M  V30 139 C 5.3210 8.3581 -0.6100 0
M  V30 140 C 5.9706 7.1286 -0.4894 0
M  V30 141 H 4.2466 8.3969 -0.6997 0
M  V30 142 N 7.3073 7.0443 -0.3831 0
M  V30 143 C 5.2211 5.8888 -0.4867 0
M  V30 144 C 8.0206 8.1617 -0.3907 0
M  V30 145 C 7.4511 9.4245 -0.5028 0
M  V30 146 H 9.0918 8.0503 -0.2980 0
M  V30 147 H 8.0752 10.3039 -0.5005 0
M  V30 148 H 5.5957 10.4880 -0.7091 0
M  V30 149 N 5.7953 4.7442 -0.4352 0
M  V30 150 H 4.1383 5.9843 -0.5688 0
M  V30 151 C 7.8259 4.7913 4.6794 0
M  V30 152 C 8.0467 3.7132 3.8318 0
M  V30 153 C 8.0767 3.9320 2.4565 0
M  V30 154 H 8.2006 2.7225 4.2307 0
M  V30 155 N 7.8866 5.1460 1.9166 0
M  V30 156 C 8.3491 2.8506 1.5229 0
M  V30 157 C 7.6842 6.1693 2.7286 0
M  V30 158 C 7.6485 6.0445 4.1160 0
M  V30 159 H 7.5531 7.1369 2.2658 0
M  V30 160 H 7.4917 6.9141 4.7342 0
M  V30 161 H 7.8033 4.6561 5.7497 0
M  V30 162 N 8.3553 3.0727 0.2759 0
M  V30 163 H 8.5542 1.8741 1.9643 0
M  V30 164 H 8.5794 2.2822 -0.3193 0
M  V30 165 C 12.7471 6.0061 -1.0115 0
M  V30 166 C 11.8176 5.7635 -2.0161 0
M  V30 167 C 10.4939 5.5125 -1.6627 0
M  V30 168 H 12.1144 5.7681 -3.0538 0
M  V30 169 N 10.0765 5.5017 -0.3838 0
M  V30 170 C 9.4814 5.2436 -2.6729 0
M  V30 171 C 10.9667 5.7406 0.5660 0
M  V30 172 C 12.3112 5.9941 0.3040 0
M  V30 173 H 10.6002 5.7364 1.5832 0
M  V30 174 H 12.9949 6.1831 1.1165 0
M  V30 175 H 13.7807 6.2026 -1.2528 0
M  V30 176 N 8.3024 4.9288 -2.3200 0
M  V30 177 H 9.7973 5.3221 -3.7126 0
M  V30 178 H 7.6507 4.7699 -3.0832 0
M  V30 179 Zn -8.1022 -5.0838 -0.6235 0 CHG=2
M  V30 180 C -6.1463 -9.4971 -0.7895 0
M  V30 181 C -5.4110 -8.3210 -0.7729 0
M  V30 182 C -6.0798 -7.0989 -0.6819 0
M  V30 183 H -4.3342 -8.3460 -0.8328 0
M  V30 184 N -7.4196 -7.0312 -0.6092 0
M  V30 185 C -5.3421 -5.8539 -0.6458 0
M  V30 186 C -8.1168 -8.1585 -0.6145 0
M  V30 187 C -7.5281 -9.4145 -0.7026 0
M  V30 188 H -9.1905 -8.0617 -0.5403 0
M  V30 189 H -8.1403 -10.3022 -0.7029 0
M  V30 190 H -5.6551 -10.4548 -0.8650 0
M  V30 191 N -5.9144 -4.7084 -0.5669 0
M  V30 192 H -4.2563 -5.9489 -0.6604 0
M  V30 193 C -9.1050 -4.6150 4.1779 0
M  V30 194 C -9.3806 -3.6477 3.2196 0
M  V30 195 C -9.0112 -3.8845 1.8977 0
M  V30 196 H -9.8782 -2.7295 3.4918 0
M  V30 197 N -8.3985 -5.0162 1.5136 0
M  V30 198 C -9.2740 -2.9108 0.8478 0
M  V30 199 C -8.1437 -5.9354 2.4286 0
M  V30 200 C -8.4748 -5.7808 3.7735 0
M  V30 201 H -7.6604 -6.8391 2.0856 0
M  V30 202 H -8.2489 -6.5631 4.4806 0
M  V30 203 H -9.3815 -4.4633 5.2100 0
M  V30 204 N -8.8410 -3.1163 -0.3254 0
M  V30 205 H -9.8442 -2.0270 1.1375 0
M  V30 206 H -9.0668 -2.4120 -1.0200 0
M  V30 207 C -12.7024 -6.1900 -2.0929 0
M  V30 208 C -11.6432 -5.8982 -2.9442 0
M  V30 209 C -10.3937 -5.6193 -2.3945 0
M  V30 210 H -11.7846 -5.8852 -4.0140 0
M  V30 211 N -10.1699 -5.6250 -1.0686 0
M  V30 212 C -9.2540 -5.3006 -3.2413 0
M  V30 213 C -11.1815 -5.9150 -0.2661 0
M  V30 214 C -12.4642 -6.2013 -0.7276 0
M  V30 215 H -10.9686 -5.9274 0.7942 0
M  V30 216 H -13.2526 -6.4316 -0.0286 0
M  V30 217 H -13.6835 -6.4063 -2.4873 0
M  V30 218 N -8.1440 -4.9688 -2.7198 0
M  V30 219 H -9.4175 -5.3608 -4.3167 0
M  V30 220 H -7.3996 -4.7693 -3.3815 0
M  V30 END ATOM
M  V30 BEGIN BOND
M  V30 1 2 1 2
M  V30 2 1 2 3
M  V30 3 2 3 4
M  V30 4 1 4 5
M  V30 5 1 5 6
M  V30 6 2 6 7
M  V30 7 1 7 8
M  V30 8 2 8 9
M  V30 9 1 9 10
M  V30 10 2 10 11
M  V30 11 1 5 12
M  V30 12 2 12 13
M  V30 13 1 13 14
M  V30 14 2 14 15
M  V30 15 1 15 16
M  V30 16 1 16 17
M  V30 17 2 17 18
M  V30 18 1 18 19
M  V30 19 2 19 20
M  V30 20 1 20 21
M  V30 21 2 21 22
M  V30 22 1 16 23
M  V30 23 2 23 24
M  V30 24 1 24 25
M  V30 25 2 25 26
M  V30 26 1 26 27
M  V30 27 2 27 28
M  V30 28 1 15 29
M  V30 29 2 29 30
M  V30 30 1 4 31
M  V30 31 2 31 32
M  V30 32 1 32 1
M  V30 33 1 11 6
M  V30 34 1 30 12
M  V30 35 1 22 17
M  V30 36 1 28 23
M  V30 37 1 2 33
M  V30 38 1 3 34
M  V30 39 1 7 35
M  V30 40 1 8 36
M  V30 41 1 10 37
M  V30 42 1 11 38
M  V30 43 1 13 39
M  V30 44 1 14 40
M  V30 45 1 18 41
M  V30 46 1 19 42
M  V30 47 1 21 43
M  V30 48 1 22 44
M  V30 49 1 24 45
M  V30 50 1 25 46
M  V30 51 1 27 47
M  V30 52 1 28 48
M  V30 53 1 29 49
M  V30 54 1 30 50
M  V30 55 1 31 51
M  V30 56 1 32 52
M  V30 57 1 54 64
M  V30 58 2 54 61
M  V30 59 1 55 54
M  V30 60 2 56 55
M  V30 61 1 56 58
M  V30 62 1 57 55
M  V30 63 2 58 60
M  V30 64 1 59 56
M  V30 65 1 60 61
M  V30 66 1 60 62
M  V30 67 1 61 63
M  V30 68 2 65 59
M  V30 69 1 66 59
M  V30 70 1 67 77
M  V30 71 2 67 74
M  V30 72 1 68 67
M  V30 73 2 69 68
M  V30 74 1 69 71
M  V30 75 1 70 68
M  V30 76 2 71 73
M  V30 77 1 72 69
M  V30 78 1 73 74
M  V30 79 1 73 75
M  V30 80 1 74 76
M  V30 81 2 78 72
M  V30 82 1 79 72
M  V30 83 1 80 78
M  V30 84 1 81 91
M  V30 85 2 81 88
M  V30 86 1 82 81
M  V30 87 2 83 82
M  V30 88 1 83 85
M  V30 89 1 84 82
M  V30 90 2 85 87
M  V30 91 1 86 83
M  V30 92 1 87 88
M  V30 93 1 87 89
M  V30 94 1 88 90
M  V30 95 2 92 86
M  V30 96 1 93 86
M  V30 97 1 94 92
M  V30 98 9 65 53
M  V30 99 9 58 53
M  V30 100 9 78 53
M  V30 101 9 71 53
M  V30 102 9 92 53
M  V30 103 9 85 53
M  V30 104 1 96 106
M  V30 105 2 96 103
M  V30 106 1 97 96
M  V30 107 2 98 97
M  V30 108 1 98 100
M  V30 109 1 99 97
M  V30 110 2 100 102
M  V30 111 1 101 98
M  V30 112 1 102 103
M  V30 113 1 102 104
M  V30 114 1 103 105
M  V30 115 2 107 101
M  V30 116 1 108 101
M  V30 117 1 109 119
M  V30 118 2 109 116
M  V30 119 1 110 109
M  V30 120 2 111 110
M  V30 121 1 111 113
M  V30 122 1 112 110
M  V30 123 2 113 115
M  V30 124 1 114 111
M  V30 125 1 115 116
M  V30 126 1 115 117
M  V30 127 1 116 118
M  V30 128 2 120 114
M  V30 129 1 121 114
M  V30 130 1 122 120
M  V30 131 1 123 133
M  V30 132 2 123 130
M  V30 133 1 124 123
M  V30 134 2 125 124
M  V30 135 1 125 127
M  V30 136 1 126 124
M  V30 137 2 127 129
M  V30 138 1 128 125
M  V30 139 1 129 130
M  V30 140 1 129 131
M  V30 141 1 130 132
M  V30 142 2 134 128
M  V30 143 1 135 128
M  V30 144 1 136 134
M  V30 145 9 107 95
M  V30 146 9 100 95
M  V30 147 9 120 95
M  V30 148 9 113 95
M  V30 149 9 134 95
M  V30 150 9 127 95
M  V30 151 1 138 148
M  V30 152 2 138 145
M  V30 153 1 139 138
M  V30 154 2 140 139
M  V30 155 1 140 142
M  V30 156 1 141 139
M  V30 157 2 142 144
M  V30 158 1 143 140
M  V30 159 1 144 145
M  V30 160 1 144 146
M  V30 161 1 145 147
M  V30 162 2 149 143
M  V30 163 1 150 143
M  V30 164 1 151 161
M  V30 165 2 151 158
M  V30 166 1 152 151
M  V30 167 2 153 152
M  V30 168 1 153 155
M  V30 169 1 154 152
M  V30 170 2 155 157
M  V30 171 1 156 153
M  V30 172 1 157 158
M  V30 173 1 157 159
M  V30 174 1 158 160
M  V30 175 2 162 156
M  V30 176 1 163 156
M  V30 177 1 164 162
M  V30 178 1 165 175
M  V30 179 2 165 172
M  V30 180 1 166 165
M  V30 181 2 167 166
M  V30 182 1 167 169
M  V30 183 1 168 166
M  V30 184 2 169 171
M  V30 185 1 170 167
M  V30 186 1 171 172
M  V30 187 1 171 173
M  V30 188 1 172 174
M  V30 189 2 176 170
M  V30 190 1 177 170
M  V30 191 1 178 176
M  V30 192 9 149 137
M  V30 193 9 142 137
M  V30 194 9 176 137
M  V30 195 9 169 137
M  V30 196 9 162 137
M  V30 197 9 155 137
M  V30 198 1 180 190
M  V30 199 2 180 187
M  V30 200 1 181 180
M  V30 201 2 182 181
M  V30 202 1 182 184
M  V30 203 1 183 181
M  V30 204 2 184 186
M  V30 205 1 185 182
M  V30 206 1 186 187
M  V30 207 1 186 188
M  V30 208 1 187 189
M  V30 209 2 191 185
M  V30 210 1 192 185
M  V30 211 1 193 203
M  V30 212 2 193 200
M  V30 213 1 194 193
M  V30 214 2 195 194
M  V30 215 1 195 197
M  V30 216 1 196 194
M  V30 217 2 197 199
M  V30 218 1 198 195
M  V30 219 1 199 200
M  V30 220 1 199 201
M  V30 221 1 200 202
M  V30 222 2 204 198
M  V30 223 1 205 198
M  V30 224 1 206 204
M  V30 225 1 207 217
M  V30 226 2 207 214
M  V30 227 1 208 207
M  V30 228 2 209 208
M  V30 229 1 209 211
M  V30 230 1 210 208
M  V30 231 2 211 213
M  V30 232 1 212 209
M  V30 233 1 213 214
M  V30 234 1 213 215
M  V30 235 1 214 216
M  V30 236 2 218 212
M  V30 237 1 219 212
M  V30 238 1 220 218
M  V30 239 9 191 179
M  V30 240 9 184 179
M  V30 241 9 218 179
M  V30 242 9 211 179
M  V30 243 9 204 179
M  V30 244 9 197 179
M  V30 245 1 1 149
M  V30 246 1 9 65
M  V30 247 1 20 191
M  V30 248 1 26 107
M  V30 END BOND
M  V30 END CTAB
M  END

$$$$
