
     RDKit          3D

  0  0  0  0  0  0  0  0  0  0999 V3000
M  V30 BEGIN CTAB
M  V30 COUNTS 236 268 0 0 0
M  V30 BEGIN ATOM
M  V30 1 C 6.2869 4.7955 0.1646 0
M  V30 2 C 6.0299 3.6706 0.9495 0
M  V30 3 C 4.8017 3.0406 0.8957 0
M  V30 4 C 3.7861 3.4968 0.0520 0
M  V30 5 C 2.4797 2.8144 -0.0114 0
M  V30 6 C 1.3017 3.5258 -0.0868 0
M  V30 7 C 0.0558 2.8675 -0.1292 0
M  V30 8 C -1.1401 3.6081 -0.2147 0
M  V30 9 C -2.3669 2.9805 -0.2709 0
M  V30 10 C -3.6148 3.7566 -0.4008 0
M  V30 11 C -4.7845 3.3853 0.2670 0
M  V30 12 C -5.9504 4.1163 0.1414 0
M  V30 13 C -5.9851 5.2695 -0.6433 0
M  V30 14 C -4.8204 5.6463 -1.3167 0
M  V30 15 C -3.6660 4.8975 -1.2043 0
M  V30 16 C -2.4042 1.5773 -0.2001 0
M  V30 17 C -1.2609 0.8026 -0.0981 0
M  V30 18 C -1.3101 -0.6547 0.0009 0
M  V30 19 C -2.5005 -1.3466 0.1431 0
M  V30 20 C -2.5611 -2.7495 0.2069 0
M  V30 21 C -3.8601 -3.4295 0.3648 0
M  V30 22 C -3.9861 -4.5706 1.1599 0
M  V30 23 C -5.1956 -5.2244 1.2948 0
M  V30 24 C -6.3393 -4.7435 0.6530 0
M  V30 25 C -6.2287 -3.5852 -0.1189 0
M  V30 26 C -5.0105 -2.9539 -0.2712 0
M  V30 27 C -1.3856 -3.4637 0.1077 0
M  V30 28 C -0.1440 -2.8094 -0.0238 0
M  V30 29 C 1.0481 -3.5541 -0.1283 0
M  V30 30 C 2.2725 -2.9299 -0.2437 0
M  V30 31 C 3.5187 -3.7101 -0.3656 0
M  V30 32 C 3.5582 -4.8904 -1.1105 0
M  V30 33 C 4.7118 -5.6439 -1.2024 0
M  V30 34 C 5.8867 -5.2308 -0.5695 0
M  V30 35 C 5.8643 -4.0375 0.1531 0
M  V30 36 C 4.6992 -3.3031 0.2618 0
M  V30 37 C 2.3114 -1.5250 -0.2298 0
M  V30 38 C 1.1721 -0.7456 -0.1205 0
M  V30 39 C 1.2245 0.7142 -0.0747 0
M  V30 40 C 2.4192 1.4106 -0.0104 0
M  V30 41 C 0.0062 1.4469 -0.0984 0
M  V30 42 C -0.0935 -1.3887 -0.0483 0
M  V30 43 C 4.0510 4.6207 -0.7319 0
M  V30 44 C 5.2722 5.2631 -0.6743 0
M  V30 45 H 6.7822 3.3290 1.6452 0
M  V30 46 H 4.6131 2.2000 1.5471 0
M  V30 47 H 1.3145 4.6054 -0.0861 0
M  V30 48 H -1.0771 4.6858 -0.2202 0
M  V30 49 H -4.7719 2.5293 0.9254 0
M  V30 50 H -6.8310 3.8314 0.6985 0
M  V30 51 H -4.8335 6.5138 -1.9595 0
M  V30 52 H -2.7915 5.1989 -1.7595 0
M  V30 53 H -3.3710 1.1038 -0.2605 0
M  V30 54 H -3.4278 -0.8048 0.2391 0
M  V30 55 H -3.1261 -4.9477 1.6910 0
M  V30 56 H -5.2651 -6.0936 1.9318 0
M  V30 57 H -7.1010 -3.2209 -0.6422 0
M  V30 58 H -4.9414 -2.0955 -0.9228 0
M  V30 59 H -1.4005 -4.5432 0.1084 0
M  V30 60 H 0.9853 -4.6313 -0.0940 0
M  V30 61 H 2.6752 -5.2202 -1.6353 0
M  V30 62 H 4.7155 -6.5448 -1.7977 0
M  V30 63 H 6.7550 -3.7237 0.6778 0
M  V30 64 H 4.6957 -2.4147 0.8758 0
M  V30 65 H 3.2754 -1.0549 -0.3403 0
M  V30 66 H 3.3552 0.8759 0.0214 0
M  V30 67 H 3.2955 4.9902 -1.4077 0
M  V30 68 H 5.4576 6.1162 -1.3100 0
M  V30 69 Zn 9.0188 -5.5189 -1.3788 0 CHG=2
M  V30 70 C 9.3109 -10.1896 -0.2182 0
M  V30 71 C 8.1455 -9.4369 -0.1635 0
M  V30 72 C 8.1959 -8.0830 -0.4938 0
M  V30 73 H 7.2123 -9.8903 0.1323 0
M  V30 74 N 9.3418 -7.4857 -0.8655 0
M  V30 75 C 7.0114 -7.2481 -0.4270 0
M  V30 76 C 10.4519 -8.2091 -0.9131 0
M  V30 77 C 10.4881 -9.5621 -0.5980 0
M  V30 78 H 11.3521 -7.6899 -1.2117 0
M  V30 79 H 11.4174 -10.1065 -0.6516 0
M  V30 80 H 9.3009 -11.2396 0.0304 0
M  V30 81 N 7.0658 -5.9873 -0.6382 0
M  V30 82 H 6.0803 -7.7423 -0.1504 0
M  V30 83 C 10.6411 -3.3242 2.7308 0
M  V30 84 C 10.1152 -2.6508 1.6373 0
M  V30 85 C 9.6764 -3.3853 0.5374 0
M  V30 86 H 10.0490 -1.5732 1.6298 0
M  V30 87 N 9.7530 -4.7238 0.4971 0
M  V30 88 C 9.0985 -2.7379 -0.6315 0
M  V30 89 C 10.2559 -5.3616 1.5397 0
M  V30 90 C 10.7104 -4.7075 2.6826 0
M  V30 91 H 10.3054 -6.4386 1.4708 0
M  V30 92 H 11.1114 -5.2724 3.5089 0
M  V30 93 H 10.9904 -2.7861 3.5984 0
M  V30 94 N 8.6731 -3.4377 -1.5974 0
M  V30 95 H 9.0537 -1.6467 -0.6108 0
M  V30 96 H 8.2722 -2.9351 -2.3823 0
M  V30 97 C 13.1075 -5.0231 -4.1165 0
M  V30 98 C 11.8697 -5.4235 -4.6038 0
M  V30 99 C 10.7978 -5.5233 -3.7197 0
M  V30 100 H 11.7387 -5.6560 -5.6494 0
M  V30 101 N 10.9146 -5.2466 -2.4103 0
M  V30 102 C 9.4789 -5.9383 -4.1804 0
M  V30 103 C 12.0988 -4.8730 -1.9530 0
M  V30 104 C 13.2229 -4.7444 -2.7638 0
M  V30 105 H 12.1638 -4.6708 -0.8925 0
M  V30 106 H 14.1663 -4.4410 -2.3383 0
M  V30 107 H 13.9577 -4.9379 -4.7758 0
M  V30 108 N 8.5037 -5.9623 -3.3692 0
M  V30 109 H 9.3958 -6.2121 -5.2316 0
M  V30 110 H 7.6193 -6.2677 -3.7654 0
M  V30 111 Zn -9.1503 5.5380 -1.3850 0 CHG=2
M  V30 112 C -9.3446 10.2808 -0.5319 0
M  V30 113 C -8.1891 9.5150 -0.4557 0
M  V30 114 C -8.2670 8.1431 -0.6941 0
M  V30 115 H -7.2423 9.9720 -0.2136 0
M  V30 116 N -9.4298 7.5407 -0.9983 0
M  V30 117 C -7.0921 7.2980 -0.5999 0
M  V30 118 C -10.5305 8.2768 -1.0664 0
M  V30 119 C -10.5397 9.6480 -0.8402 0
M  V30 120 H -11.4453 7.7537 -1.3078 0
M  V30 121 H -11.4625 10.2021 -0.9064 0
M  V30 122 H -9.3134 11.3447 -0.3538 0
M  V30 123 N -7.1626 6.0272 -0.7330 0
M  V30 124 H -6.1505 7.7973 -0.3724 0
M  V30 125 C -10.5492 3.6829 2.9660 0
M  V30 126 C -10.0811 2.9221 1.9031 0
M  V30 127 C -9.7175 3.5643 0.7219 0
M  V30 128 H -9.9986 1.8488 1.9850 0
M  V30 129 N -9.8087 4.8938 0.5747 0
M  V30 130 C -9.2054 2.8221 -0.4233 0
M  V30 131 C -10.2578 5.6144 1.5873 0
M  V30 132 C -10.6388 5.0560 2.8055 0
M  V30 133 H -10.3230 6.6815 1.4313 0
M  V30 134 H -10.9982 5.6863 3.6032 0
M  V30 135 H -10.8382 3.2166 3.8951 0
M  V30 136 N -8.8358 3.4403 -1.4631 0
M  V30 137 H -9.1601 1.7362 -0.3162 0
M  V30 138 H -8.4818 2.8744 -2.2277 0
M  V30 139 C -13.3526 4.9037 -3.9081 0
M  V30 140 C -12.1303 5.2442 -4.4741 0
M  V30 141 C -11.0217 5.3933 -3.6439 0
M  V30 142 H -12.0394 5.3929 -5.5391 0
M  V30 143 N -11.0884 5.2197 -2.3132 0
M  V30 144 C -9.7174 5.7508 -4.1867 0
M  V30 145 C -12.2578 4.9024 -1.7814 0
M  V30 146 C -13.4161 4.7317 -2.5344 0
M  V30 147 H -12.2815 4.7827 -0.7067 0
M  V30 148 H -14.3454 4.4781 -2.0495 0
M  V30 149 H -14.2303 4.7825 -4.5243 0
M  V30 150 N -8.7103 5.8252 -3.4183 0
M  V30 151 H -9.6728 5.9392 -5.2588 0
M  V30 152 H -7.8390 6.0855 -3.8717 0
M  V30 153 Zn 9.5165 4.7096 -0.2163 0 CHG=2
M  V30 154 C 10.1366 9.4312 0.5444 0
M  V30 155 C 8.9039 8.7927 0.5345 0
M  V30 156 C 8.8552 7.4136 0.3339 0
M  V30 157 H 7.9939 9.3534 0.6808 0
M  V30 158 N 9.9690 6.6834 0.1500 0
M  V30 159 C 7.5913 6.7016 0.3236 0
M  V30 160 C 11.1437 7.2985 0.1649 0
M  V30 161 C 11.2796 8.6679 0.3579 0
M  V30 162 H 12.0153 6.6756 0.0179 0
M  V30 163 H 12.2584 9.1206 0.3598 0
M  V30 164 H 10.2037 10.4978 0.6941 0
M  V30 165 N 7.5382 5.4276 0.2196 0
M  V30 166 H 6.6907 7.3045 0.4365 0
M  V30 167 C 10.2461 2.8401 4.2848 0
M  V30 168 C 9.6835 2.1391 3.2263 0
M  V30 169 C 9.5601 2.7685 1.9895 0
M  V30 170 H 9.3408 1.1241 3.3590 0
M  V30 171 N 9.9592 4.0339 1.7862 0
M  V30 172 C 8.9817 2.0864 0.8417 0
M  V30 173 C 10.4956 4.6964 2.7962 0
M  V30 174 C 10.6639 4.1426 4.0641 0
M  V30 175 H 10.8097 5.7111 2.5975 0
M  V30 176 H 11.1096 4.7240 4.8555 0
M  V30 177 H 10.3548 2.3815 5.2556 0
M  V30 178 N 8.8982 2.6791 -0.2747 0
M  V30 179 H 8.6329 1.0649 1.0120 0
M  V30 180 H 8.4723 2.1620 -1.0363 0
M  V30 181 C 13.8003 3.6789 -2.4478 0
M  V30 182 C 12.6632 4.1430 -3.0972 0
M  V30 183 C 11.5114 4.3809 -2.3508 0
M  V30 184 H 12.6706 4.3211 -4.1615 0
M  V30 185 N 11.4571 4.1786 -1.0239 0
M  V30 186 C 10.2920 4.8681 -2.9830 0
M  V30 187 C 12.5458 3.7416 -0.4120 0
M  V30 188 C 13.7389 3.4750 -1.0783 0
M  V30 189 H 12.4731 3.6006 0.6577 0
M  V30 190 H 14.5995 3.1254 -0.5304 0
M  V30 191 H 14.7096 3.4893 -2.9974 0
M  V30 192 N 9.2407 5.0212 -2.2903 0
M  V30 193 H 10.3481 5.0780 -4.0508 0
M  V30 194 H 8.4333 5.3702 -2.7991 0
M  V30 195 Zn -9.5080 -4.5735 1.2433 0 CHG=2
M  V30 196 C -10.3048 -9.3009 0.6041 0
M  V30 197 C -9.0544 -8.7011 0.5432 0
M  V30 198 C -8.9497 -7.3261 0.7518 0
M  V30 199 H -8.1738 -9.2877 0.3325 0
M  V30 200 N -10.0264 -6.5644 1.0121 0
M  V30 201 C -7.6683 -6.6502 0.6712 0
M  V30 202 C -11.2175 -7.1438 1.0720 0
M  V30 203 C -11.4088 -8.5060 0.8752 0
M  V30 204 H -12.0568 -6.4980 1.2905 0
M  V30 205 H -12.3989 -8.9288 0.9352 0
M  V30 206 H -10.4155 -10.3624 0.4442 0
M  V30 207 N -7.5832 -5.3767 0.7551 0
M  V30 208 H -6.7950 -7.2763 0.4918 0
M  V30 209 C -8.7221 -4.7489 6.1152 0
M  V30 210 C -8.3257 -3.7021 5.2923 0
M  V30 211 C -8.6268 -3.7627 3.9337 0
M  V30 212 H -7.7989 -2.8516 5.6970 0
M  V30 213 N -9.2781 -4.8013 3.3852 0
M  V30 214 C -8.2631 -2.6849 3.0294 0
M  V30 215 C -9.6523 -5.7945 4.1737 0
M  V30 216 C -9.4011 -5.8132 5.5445 0
M  V30 217 H -10.1811 -6.6125 3.7055 0
M  V30 218 H -9.7343 -6.6454 6.1441 0
M  V30 219 H -8.5090 -4.7299 7.1729 0
M  V30 220 N -8.6120 -2.7310 1.8110 0
M  V30 221 H -7.6968 -1.8601 3.4642 0
M  V30 222 H -8.3145 -1.9504 1.2358 0
M  V30 223 C -14.1502 -2.9026 1.0992 0
M  V30 224 C -13.3593 -3.1269 -0.0209 0
M  V30 225 C -12.0496 -3.5659 0.1572 0
M  V30 226 H -13.7518 -2.9706 -1.0139 0
M  V30 227 N -11.5211 -3.7845 1.3729 0
M  V30 228 C -11.1746 -3.8182 -0.9806 0
M  V30 229 C -12.2808 -3.5714 2.4345 0
M  V30 230 C -13.5983 -3.1275 2.3504 0
M  V30 231 H -11.8297 -3.7651 3.3975 0
M  V30 232 H -14.1766 -2.9738 3.2476 0
M  V30 233 H -15.1711 -2.5685 0.9949 0
M  V30 234 N -9.9632 -4.1351 -0.7818 0
M  V30 235 H -11.6187 -3.7133 -1.9706 0
M  V30 236 H -9.4154 -4.3166 -1.6185 0
M  V30 END ATOM
M  V30 BEGIN BOND
M  V30 1 2 1 2
M  V30 2 1 2 3
M  V30 3 2 3 4
M  V30 4 1 4 5
M  V30 5 2 5 6
M  V30 6 1 6 7
M  V30 7 2 7 8
M  V30 8 1 8 9
M  V30 9 1 9 10
M  V30 10 2 10 11
M  V30 11 1 11 12
M  V30 12 2 12 13
M  V30 13 1 13 14
M  V30 14 2 14 15
M  V30 15 2 9 16
M  V30 16 1 16 17
M  V30 17 1 17 18
M  V30 18 2 18 19
M  V30 19 1 19 20
M  V30 20 1 20 21
M  V30 21 2 21 22
M  V30 22 1 22 23
M  V30 23 2 23 24
M  V30 24 1 24 25
M  V30 25 2 25 26
M  V30 26 2 20 27
M  V30 27 1 27 28
M  V30 28 1 28 29
M  V30 29 2 29 30
M  V30 30 1 30 31
M  V30 31 2 31 32
M  V30 32 1 32 33
M  V30 33 2 33 34
M  V30 34 1 34 35
M  V30 35 2 35 36
M  V30 36 1 30 37
M  V30 37 2 37 38
M  V30 38 1 38 39
M  V30 39 2 39 40
M  V30 40 1 39 41
M  V30 41 1 38 42
M  V30 42 1 4 43
M  V30 43 2 43 44
M  V30 44 1 44 1
M  V30 45 1 40 5
M  V30 46 1 41 7
M  V30 47 1 15 10
M  V30 48 2 41 17
M  V30 49 1 42 18
M  V30 50 1 26 21
M  V30 51 2 42 28
M  V30 52 1 36 31
M  V30 53 1 2 45
M  V30 54 1 3 46
M  V30 55 1 6 47
M  V30 56 1 8 48
M  V30 57 1 11 49
M  V30 58 1 12 50
M  V30 59 1 14 51
M  V30 60 1 15 52
M  V30 61 1 16 53
M  V30 62 1 19 54
M  V30 63 1 22 55
M  V30 64 1 23 56
M  V30 65 1 25 57
M  V30 66 1 26 58
M  V30 67 1 27 59
M  V30 68 1 29 60
M  V30 69 1 32 61
M  V30 70 1 33 62
M  V30 71 1 35 63
M  V30 72 1 36 64
M  V30 73 1 37 65
M  V30 74 1 40 66
M  V30 75 1 43 67
M  V30 76 1 44 68
M  V30 77 1 70 80
M  V30 78 2 70 77
M  V30 79 1 71 70
M  V30 80 2 72 71
M  V30 81 1 72 74
M  V30 82 1 73 71
M  V30 83 2 74 76
M  V30 84 1 75 72
M  V30 85 1 76 77
M  V30 86 1 76 78
M  V30 87 1 77 79
M  V30 88 2 81 75
M  V30 89 1 82 75
M  V30 90 1 83 93
M  V30 91 2 83 90
M  V30 92 1 84 83
M  V30 93 2 85 84
M  V30 94 1 85 87
M  V30 95 1 86 84
M  V30 96 2 87 89
M  V30 97 1 88 85
M  V30 98 1 89 90
M  V30 99 1 89 91
M  V30 100 1 90 92
M  V30 101 2 94 88
M  V30 102 1 95 88
M  V30 103 1 96 94
M  V30 104 1 97 107
M  V30 105 2 97 104
M  V30 106 1 98 97
M  V30 107 2 99 98
M  V30 108 1 99 101
M  V30 109 1 100 98
M  V30 110 2 101 103
M  V30 111 1 102 99
M  V30 112 1 103 104
M  V30 113 1 103 105
M  V30 114 1 104 106
M  V30 115 2 108 102
M  V30 116 1 109 102
M  V30 117 1 110 108
M  V30 118 9 81 69
M  V30 119 9 74 69
M  V30 120 9 94 69
M  V30 121 9 87 69
M  V30 122 9 108 69
M  V30 123 9 101 69
M  V30 124 1 112 122
M  V30 125 2 112 119
M  V30 126 1 113 112
M  V30 127 2 114 113
M  V30 128 1 114 116
M  V30 129 1 115 113
M  V30 130 2 116 118
M  V30 131 1 117 114
M  V30 132 1 118 119
M  V30 133 1 118 120
M  V30 134 1 119 121
M  V30 135 2 123 117
M  V30 136 1 124 117
M  V30 137 1 125 135
M  V30 138 2 125 132
M  V30 139 1 126 125
M  V30 140 2 127 126
M  V30 141 1 127 129
M  V30 142 1 128 126
M  V30 143 2 129 131
M  V30 144 1 130 127
M  V30 145 1 131 132
M  V30 146 1 131 133
M  V30 147 1 132 134
M  V30 148 2 136 130
M  V30 149 1 137 130
M  V30 150 1 138 136
M  V30 151 1 139 149
M  V30 152 2 139 146
M  V30 153 1 140 139
M  V30 154 2 141 140
M  V30 155 1 141 143
M  V30 156 1 142 140
M  V30 157 2 143 145
M  V30 158 1 144 141
M  V30 159 1 145 146
M  V30 160 1 145 147
M  V30 161 1 146 148
M  V30 162 2 150 144
M  V30 163 1 151 144
M  V30 164 1 152 150
M  V30 165 9 123 111
M  V30 166 9 116 111
M  V30 167 9 136 111
M  V30 168 9 129 111
M  V30 169 9 150 111
M  V30 170 9 143 111
M  V30 171 1 154 164
M  V30 172 2 154 161
M  V30 173 1 155 154
M  V30 174 2 156 155
M  V30 175 1 156 158
M  V30 176 1 157 155
M  V30 177 2 158 160
M  V30 178 1 159 156
M  V30 179 1 160 161
M  V30 180 1 160 162
M  V30 181 1 161 163
M  V30 182 2 165 159
M  V30 183 1 166 159
M  V30 184 1 167 177
M  V30 185 2 167 174
M  V30 186 1 168 167
M  V30 187 2 169 168
M  V30 188 1 169 171
M  V30 189 1 170 168
M  V30 190 2 171 173
M  V30 191 1 172 169
M  V30 192 1 173 174
M  V30 193 1 173 175
M  V30 194 1 174 176
M  V30 195 2 178 172
M  V30 196 1 179 172
M  V30 197 1 180 178
M  V30 198 1 181 191
M  V30 199 2 181 188
M  V30 200 1 182 181
M  V30 201 2 183 182
M  V30 202 1 183 185
M  V30 203 1 184 182
M  V30 204 2 185 187
M  V30 205 1 186 183
M  V30 206 1 187 188
M  V30 207 1 187 189
M  V30 208 1 188 190
M  V30 209 2 192 186
M  V30 210 1 193 186
M  V30 211 1 194 192
M  V30 212 9 165 153
M  V30 213 9 158 153
M  V30 214 9 192 153
M  V30 215 9 185 153
M  V30 216 9 178 153
M  V30 217 9 171 153
M  V30 218 1 196 206
M  V30 219 2 196 203
M  V30 220 1 197 196
M  V30 221 2 198 197
M  V30 222 1 198 200
M  V30 223 1 199 197
M  V30 224 2 200 202
M  V30 225 1 201 198
M  V30 226 1 202 203
M  V30 227 1 202 204
M  V30 228 1 203 205
M  V30 229 2 207 201
M  V30 230 1 208 201
M  V30 231 1 209 219
M  V30 232 2 209 216
M  V30 233 1 210 209
M  V30 234 2 211 210
M  V30 235 1 211 213
M  V30 236 1 212 210
M  V30 237 2 213 215
M  V30 238 1 214 211
M  V30 239 1 215 216
M  V30 240 1 215 217
M  V30 241 1 216 218
M  V30 242 2 220 214
M  V30 243 1 221 214
M  V30 244 1 222 220
M  V30 245 1 223 233
M  V30 246 2 223 230
M  V30 247 1 224 223
M  V30 248 2 225 224
M  V30 249 1 225 227
M  V30 250 1 226 224
M  V30 251 2 227 229
M  V30 252 1 228 225
M  V30 253 1 229 230
M  V30 254 1 229 231
M  V30 255 1 230 232
M  V30 256 2 234 228
M  V30 257 1 235 228
M  V30 258 1 236 234
M  V30 259 9 207 195
M  V30 260 9 200 195
M  V30 261 9 234 195
M  V30 262 9 227 195
M  V30 263 9 220 195
M  V30 264 9 213 195
M  V30 265 1 1 165
M  V30 266 1 34 81
M  V30 267 1 24 207
M  V30 268 1 13 123
M  V30 END BOND
M  V30 END CTAB
M  END

$$$$
