
     RDKit          3D

  0  0  0  0  0  0  0  0  0  0999 V3000
M  V30 BEGIN CTAB
M  V30 COUNTS 236 268 0 0 0
M  V30 BEGIN ATOM
M  V30 1 C 6.1234 5.8052 -1.6574 0
M  V30 2 C 6.2162 4.6339 -0.9047 0
M  V30 3 C 5.0927 3.8706 -0.6462 0
M  V30 4 C 3.8374 4.2336 -1.1384 0
M  V30 5 C 2.6190 3.4565 -0.8346 0
M  V30 6 C 1.4431 4.1060 -0.5263 0
M  V30 7 C 0.2632 3.3884 -0.2483 0
M  V30 8 C -0.9260 4.0759 0.0681 0
M  V30 9 C -2.0919 3.3955 0.3459 0
M  V30 10 C -3.3303 4.1174 0.6978 0
M  V30 11 C -4.1869 3.6591 1.7022 0
M  V30 12 C -5.3351 4.3492 2.0430 0
M  V30 13 C -5.6644 5.5435 1.4005 0
M  V30 14 C -4.8205 5.9993 0.3832 0
M  V30 15 C -3.6843 5.2956 0.0372 0
M  V30 16 C -2.0767 1.9919 0.2783 0
M  V30 17 C -0.9427 1.2695 -0.0532 0
M  V30 18 C -0.9521 -0.1875 -0.1677 0
M  V30 19 C -2.1126 -0.9322 -0.0364 0
M  V30 20 C -2.1273 -2.3346 -0.1187 0
M  V30 21 C -3.3794 -3.0982 0.0238 0
M  V30 22 C -3.3952 -4.3080 0.7220 0
M  V30 23 C -4.5396 -5.0746 0.8067 0
M  V30 24 C -5.7272 -4.6454 0.2088 0
M  V30 25 C -5.7333 -3.4120 -0.4461 0
M  V30 26 C -4.5778 -2.6619 -0.5464 0
M  V30 27 C -0.9374 -2.9916 -0.3418 0
M  V30 28 C 0.2673 -2.2815 -0.5009 0
M  V30 29 C 1.4680 -2.9790 -0.7279 0
M  V30 30 C 2.6661 -2.3132 -0.8656 0
M  V30 31 C 3.9118 -3.0788 -1.0618 0
M  V30 32 C 3.9224 -4.2335 -1.8514 0
M  V30 33 C 5.0639 -4.9937 -2.0014 0
M  V30 34 C 6.2612 -4.6087 -1.3938 0
M  V30 35 C 6.2605 -3.4541 -0.6052 0
M  V30 36 C 5.1057 -2.7137 -0.4371 0
M  V30 37 C 2.6612 -0.9073 -0.8058 0
M  V30 38 C 1.5034 -0.1697 -0.6106 0
M  V30 39 C 1.4930 1.2946 -0.5893 0
M  V30 40 C 2.6254 2.0507 -0.8487 0
M  V30 41 C 0.2726 1.9673 -0.2973 0
M  V30 42 C 0.2735 -0.8623 -0.4258 0
M  V30 43 C 3.7595 5.3862 -1.9228 0
M  V30 44 C 4.8738 6.1608 -2.1738 0
M  V30 45 H 7.1680 4.3577 -0.4759 0
M  V30 46 H 5.1852 2.9966 -0.0185 0
M  V30 47 H 1.4138 5.1840 -0.4738 0
M  V30 48 H -0.8976 5.1541 0.1175 0
M  V30 49 H -3.9288 2.7664 2.2527 0
M  V30 50 H -5.9568 3.9982 2.8538 0
M  V30 51 H -5.0781 6.8956 -0.1613 0
M  V30 52 H -3.0662 5.6623 -0.7675 0
M  V30 53 H -3.0053 1.4805 0.4753 0
M  V30 54 H -3.0521 -0.4392 0.1554 0
M  V30 55 H -2.4972 -4.6500 1.2126 0
M  V30 56 H -4.5262 -5.9979 1.3669 0
M  V30 57 H -6.6415 -3.0800 -0.9274 0
M  V30 58 H -4.5937 -1.7403 -1.1091 0
M  V30 59 H -0.9155 -4.0673 -0.4315 0
M  V30 60 H 1.4343 -4.0577 -0.7583 0
M  V30 61 H 3.0246 -4.5274 -2.3729 0
M  V30 62 H 5.0554 -5.8721 -2.6288 0
M  V30 63 H 7.1602 -3.1647 -0.0814 0
M  V30 64 H 5.1259 -1.8500 0.2105 0
M  V30 65 H 3.6046 -0.4037 -0.9432 0
M  V30 66 H 3.5535 1.5647 -1.1043 0
M  V30 67 H 2.8129 5.6759 -2.3523 0
M  V30 68 H 4.7844 7.0344 -2.8023 0
M  V30 69 Zn -8.8953 5.7561 1.9070 0 CHG=2
M  V30 70 C -8.8087 10.4836 2.8492 0
M  V30 71 C -7.6961 9.7307 2.5005 0
M  V30 72 C -7.8445 8.3617 2.2781 0
M  V30 73 H -6.7273 10.1952 2.4025 0
M  V30 74 N -9.0361 7.7505 2.3913 0
M  V30 75 C -6.7069 7.5345 1.9258 0
M  V30 76 C -10.0944 8.4739 2.7303 0
M  V30 77 C -10.0321 9.8412 2.9698 0
M  V30 78 H -11.0321 7.9432 2.8184 0
M  V30 79 H -10.9225 10.3849 3.2427 0
M  V30 80 H -8.7233 11.5450 3.0238 0
M  V30 81 N -6.8057 6.2663 1.7809 0
M  V30 82 H -5.7515 8.0475 1.8178 0
M  V30 83 C -8.7353 3.8751 6.4621 0
M  V30 84 C -8.6313 3.1247 5.2982 0
M  V30 85 C -8.6985 3.7747 4.0680 0
M  V30 86 H -8.5011 2.0543 5.3424 0
M  V30 87 N -8.8590 5.1032 3.9668 0
M  V30 88 C -8.5947 3.0432 2.8142 0
M  V30 89 C -8.9613 5.8125 5.0772 0
M  V30 90 C -8.9056 5.2453 6.3489 0
M  V30 91 H -9.0972 6.8781 4.9607 0
M  V30 92 H -8.9961 5.8678 7.2248 0
M  V30 93 H -8.6871 3.4018 7.4306 0
M  V30 94 N -8.6226 3.6660 1.7117 0
M  V30 95 H -8.4903 1.9592 2.8941 0
M  V30 96 H -8.5407 3.1058 0.8700 0
M  V30 97 C -13.7208 5.2272 0.9307 0
M  V30 98 C -12.7581 5.5842 -0.0051 0
M  V30 99 C -11.4301 5.6905 0.4019 0
M  V30 100 H -13.0323 5.7794 -1.0305 0
M  V30 101 N -11.0426 5.4605 1.6674 0
M  V30 102 C -10.3820 6.0623 -0.5395 0
M  V30 103 C -11.9665 5.1276 2.5540 0
M  V30 104 C -13.3157 4.9961 2.2357 0
M  V30 105 H -11.6251 4.9616 3.5666 0
M  V30 106 H -14.0288 4.7268 2.9987 0
M  V30 107 H -14.7585 5.1389 0.6473 0
M  V30 108 N -9.1723 6.0936 -0.1588 0
M  V30 109 H -10.7017 6.2987 -1.5541 0
M  V30 110 H -8.5011 6.3683 -0.8704 0
M  V30 111 Zn 9.2177 6.1850 -2.6833 0 CHG=2
M  V30 112 C 9.2116 10.9738 -2.0190 0
M  V30 113 C 8.1207 10.1476 -1.7877 0
M  V30 114 C 8.2545 8.7737 -1.9883 0
M  V30 115 H 7.1801 10.5598 -1.4571 0
M  V30 116 N 9.4104 8.2262 -2.3997 0
M  V30 117 C 7.1445 7.8725 -1.7462 0
M  V30 118 C 10.4504 9.0195 -2.6135 0
M  V30 119 C 10.4016 10.3973 -2.4372 0
M  V30 120 H 11.3640 8.5397 -2.9355 0
M  V30 121 H 11.2765 10.9992 -2.6247 0
M  V30 122 H 9.1358 12.0406 -1.8750 0
M  V30 123 N 7.2559 6.6041 -1.8742 0
M  V30 124 H 6.2118 8.3335 -1.4207 0
M  V30 125 C 11.2477 4.6186 1.5208 0
M  V30 126 C 10.7246 3.7834 0.5418 0
M  V30 127 C 10.1680 4.3514 -0.6012 0
M  V30 128 H 10.7493 2.7111 0.6608 0
M  V30 129 N 10.1189 5.6788 -0.7914 0
M  V30 130 C 9.6003 3.5280 -1.6612 0
M  V30 131 C 10.6200 6.4694 0.1418 0
M  V30 132 C 11.1942 5.9877 1.3163 0
M  V30 133 H 10.5700 7.5324 -0.0457 0
M  V30 134 H 11.5913 6.6745 2.0467 0
M  V30 135 H 11.6875 4.2097 2.4173 0
M  V30 136 N 9.0570 4.0768 -2.6644 0
M  V30 137 H 9.6703 2.4476 -1.5260 0
M  V30 138 H 8.6775 3.4535 -3.3698 0
M  V30 139 C 13.1600 5.7637 -5.6351 0
M  V30 140 C 11.8627 5.9973 -6.0739 0
M  V30 141 C 10.8415 6.1002 -5.1322 0
M  V30 142 H 11.6469 6.0985 -7.1264 0
M  V30 143 N 11.0628 5.9819 -3.8122 0
M  V30 144 C 9.4645 6.3456 -5.5389 0
M  V30 145 C 12.3021 5.7667 -3.4022 0
M  V30 146 C 13.3828 5.6488 -4.2721 0
M  V30 147 H 12.4498 5.6887 -2.3337 0
M  V30 148 H 14.3742 5.4766 -3.8843 0
M  V30 149 H 13.9731 5.6789 -6.3397 0
M  V30 150 N 8.5427 6.3814 -4.6676 0
M  V30 151 H 9.2915 6.4886 -6.6051 0
M  V30 152 H 7.6110 6.5627 -5.0300 0
M  V30 153 Zn 7.7034 -7.5465 -1.5077 0 CHG=2
M  V30 154 C 12.0809 -5.7144 -2.5651 0
M  V30 155 C 10.9506 -4.9447 -2.3328 0
M  V30 156 C 9.7442 -5.5793 -2.0355 0
M  V30 157 H 10.9983 -3.8682 -2.3838 0
M  V30 158 N 9.6462 -6.9162 -1.9695 0
M  V30 159 C 8.5350 -4.8137 -1.8006 0
M  V30 160 C 10.7285 -7.6471 -2.1925 0
M  V30 161 C 11.9682 -7.0946 -2.4923 0
M  V30 162 H 10.6085 -8.7189 -2.1250 0
M  V30 163 H 12.8204 -7.7327 -2.6631 0
M  V30 164 H 13.0271 -5.2507 -2.7974 0
M  V30 165 N 7.4072 -5.3807 -1.6014 0
M  V30 166 H 8.6336 -3.7282 -1.8430 0
M  V30 167 C 8.2821 -7.5737 3.3979 0
M  V30 168 C 7.0704 -7.7606 2.7449 0
M  V30 169 C 7.0417 -7.7192 1.3530 0
M  V30 170 H 6.1657 -7.9436 3.3036 0
M  V30 171 N 8.1419 -7.4951 0.6177 0
M  V30 172 C 5.8067 -7.9433 0.6133 0
M  V30 173 C 9.2926 -7.3200 1.2456 0
M  V30 174 C 9.4153 -7.3524 2.6321 0
M  V30 175 H 10.1623 -7.1547 0.6255 0
M  V30 176 H 10.3801 -7.2143 3.0936 0
M  V30 177 H 8.3392 -7.6082 4.4749 0
M  V30 178 N 5.8112 -7.9013 -0.6527 0
M  V30 179 H 4.9172 -8.1520 1.2079 0
M  V30 180 H 4.9205 -8.0853 -1.1042 0
M  V30 181 C 8.4386 -12.3201 -2.4197 0
M  V30 182 C 7.9906 -11.3952 -3.3552 0
M  V30 183 C 7.8297 -10.0679 -2.9658 0
M  V30 184 H 7.7694 -11.6978 -4.3673 0
M  V30 185 N 8.0942 -9.6446 -1.7171 0
M  V30 186 C 7.3653 -9.0570 -3.9044 0
M  V30 187 C 8.5248 -10.5305 -0.8338 0
M  V30 188 C 8.7117 -11.8772 -1.1354 0
M  V30 189 H 8.7379 -10.1585 0.1588 0
M  V30 190 H 9.0668 -12.5571 -0.3773 0
M  V30 191 H 8.5726 -13.3563 -2.6900 0
M  V30 192 N 7.1745 -7.8654 -3.5094 0
M  V30 193 H 7.1981 -9.3847 -4.9299 0
M  V30 194 H 6.8614 -7.2168 -4.2261 0
M  V30 195 Zn -8.9031 -4.8712 0.7784 0 CHG=2
M  V30 196 C -9.1418 -9.6085 -0.1898 0
M  V30 197 C -7.9743 -8.8592 -0.2241 0
M  V30 198 C -8.0305 -7.4998 0.0829 0
M  V30 199 H -7.0342 -9.3179 -0.4879 0
M  V30 200 N -9.1846 -6.8930 0.4084 0
M  V30 201 C -6.8389 -6.6743 0.0502 0
M  V30 202 C -10.2962 -7.6146 0.4406 0
M  V30 203 C -10.3267 -8.9736 0.1522 0
M  V30 204 H -11.2022 -7.0911 0.7130 0
M  V30 205 H -11.2571 -9.5167 0.1962 0
M  V30 206 H -9.1281 -10.6619 -0.4234 0
M  V30 207 N -6.8969 -5.4115 0.2463 0
M  V30 208 H -5.9017 -7.1779 -0.1849 0
M  V30 209 C -7.9233 -5.3768 5.5973 0
M  V30 210 C -7.6621 -4.2314 4.8571 0
M  V30 211 C -8.0185 -4.2028 3.5105 0
M  V30 212 H -7.1964 -3.3730 5.3161 0
M  V30 213 N -8.5918 -5.2499 2.8962 0
M  V30 214 C -7.8118 -3.0174 2.6957 0
M  V30 215 C -8.8384 -6.3374 3.6066 0
M  V30 216 C -8.5288 -6.4482 4.9603 0
M  V30 217 H -9.3096 -7.1591 3.0862 0
M  V30 218 H -8.7609 -7.3545 5.4965 0
M  V30 219 H -7.6659 -5.4283 6.6440 0
M  V30 220 N -8.2102 -2.9959 1.4920 0
M  V30 221 H -7.3180 -2.1758 3.1837 0
M  V30 222 H -8.0359 -2.1385 0.9790 0
M  V30 223 C -13.6931 -3.7540 0.7984 0
M  V30 224 C -12.8916 -3.7656 -0.3366 0
M  V30 225 C -11.5391 -4.0684 -0.2017 0
M  V30 226 H -13.3080 -3.5486 -1.3083 0
M  V30 227 N -10.9789 -4.3530 0.9861 0
M  V30 228 C -10.6505 -4.0953 -1.3566 0
M  V30 229 C -11.7483 -4.3409 2.0620 0
M  V30 230 C -13.1084 -4.0453 2.0206 0
M  V30 231 H -11.2684 -4.5812 3.0004 0
M  V30 232 H -13.6923 -4.0543 2.9272 0
M  V30 233 H -14.7462 -3.5292 0.7263 0
M  V30 234 N -9.4118 -4.3103 -1.1895 0
M  V30 235 H -11.1083 -3.9203 -2.3298 0
M  V30 236 H -8.8542 -4.3304 -2.0390 0
M  V30 END ATOM
M  V30 BEGIN BOND
M  V30 1 2 1 2
M  V30 2 1 2 3
M  V30 3 2 3 4
M  V30 4 1 4 5
M  V30 5 2 5 6
M  V30 6 1 6 7
M  V30 7 2 7 8
M  V30 8 1 8 9
M  V30 9 1 9 10
M  V30 10 2 10 11
M  V30 11 1 11 12
M  V30 12 2 12 13
M  V30 13 1 13 14
M  V30 14 2 14 15
M  V30 15 2 9 16
M  V30 16 1 16 17
M  V30 17 1 17 18
M  V30 18 2 18 19
M  V30 19 1 19 20
M  V30 20 1 20 21
M  V30 21 2 21 22
M  V30 22 1 22 23
M  V30 23 2 23 24
M  V30 24 1 24 25
M  V30 25 2 25 26
M  V30 26 2 20 27
M  V30 27 1 27 28
M  V30 28 1 28 29
M  V30 29 2 29 30
M  V30 30 1 30 31
M  V30 31 2 31 32
M  V30 32 1 32 33
M  V30 33 2 33 34
M  V30 34 1 34 35
M  V30 35 2 35 36
M  V30 36 1 30 37
M  V30 37 2 37 38
M  V30 38 1 38 39
M  V30 39 2 39 40
M  V30 40 1 39 41
M  V30 41 1 38 42
M  V30 42 1 4 43
M  V30 43 2 43 44
M  V30 44 1 44 1
M  V30 45 1 40 5
M  V30 46 1 41 7
M  V30 47 1 15 10
M  V30 48 2 41 17
M  V30 49 1 42 18
M  V30 50 1 26 21
M  V30 51 2 42 28
M  V30 52 1 36 31
M  V30 53 1 2 45
M  V30 54 1 3 46
M  V30 55 1 6 47
M  V30 56 1 8 48
M  V30 57 1 11 49
M  V30 58 1 12 50
M  V30 59 1 14 51
M  V30 60 1 15 52
M  V30 61 1 16 53
M  V30 62 1 19 54
M  V30 63 1 22 55
M  V30 64 1 23 56
M  V30 65 1 25 57
M  V30 66 1 26 58
M  V30 67 1 27 59
M  V30 68 1 29 60
M  V30 69 1 32 61
M  V30 70 1 33 62
M  V30 71 1 35 63
M  V30 72 1 36 64
M  V30 73 1 37 65
M  V30 74 1 40 66
M  V30 75 1 43 67
M  V30 76 1 44 68
M  V30 77 1 70 80
M  V30 78 2 70 77
M  V30 79 1 71 70
M  V30 80 2 72 71
M  V30 81 1 72 74
M  V30 82 1 73 71
M  V30 83 2 74 76
M  V30 84 1 75 72
M  V30 85 1 76 77
M  V30 86 1 76 78
M  V30 87 1 77 79
M  V30 88 2 81 75
M  V30 89 1 82 75
M  V30 90 1 83 93
M  V30 91 2 83 90
M  V30 92 1 84 83
M  V30 93 2 85 84
M  V30 94 1 85 87
M  V30 95 1 86 84
M  V30 96 2 87 89
M  V30 97 1 88 85
M  V30 98 1 89 90
M  V30 99 1 89 91
M  V30 100 1 90 92
M  V30 101 2 94 88
M  V30 102 1 95 88
M  V30 103 1 96 94
M  V30 104 1 97 107
M  V30 105 2 97 104
M  V30 106 1 98 97
M  V30 107 2 99 98
M  V30 108 1 99 101
M  V30 109 1 100 98
M  V30 110 2 101 103
M  V30 111 1 102 99
M  V30 112 1 103 104
M  V30 113 1 103 105
M  V30 114 1 104 106
M  V30 115 2 108 102
M  V30 116 1 109 102
M  V30 117 1 110 108
M  V30 118 9 81 69
M  V30 119 9 74 69
M  V30 120 9 94 69
M  V30 121 9 87 69
M  V30 122 9 108 69
M  V30 123 9 101 69
M  V30 124 1 112 122
M  V30 125 2 112 119
M  V30 126 1 113 112
M  V30 127 2 114 113
M  V30 128 1 114 116
M  V30 129 1 115 113
M  V30 130 2 116 118
M  V30 131 1 117 114
M  V30 132 1 118 119
M  V30 133 1 118 120
M  V30 134 1 119 121
M  V30 135 2 123 117
M  V30 136 1 124 117
M  V30 137 1 125 135
M  V30 138 2 125 132
M  V30 139 1 126 125
M  V30 140 2 127 126
M  V30 141 1 127 129
M  V30 142 1 128 126
M  V30 143 2 129 131
M  V30 144 1 130 127
M  V30 145 1 131 132
M  V30 146 1 131 133
M  V30 147 1 132 134
M  V30 148 2 136 130
M  V30 149 1 137 130
M  V30 150 1 138 136
M  V30 151 1 139 149
M  V30 152 2 139 146
M  V30 153 1 140 139
M  V30 154 2 141 140
M  V30 155 1 141 143
M  V30 156 1 142 140
M  V30 157 2 143 145
M  V30 158 1 144 141
M  V30 159 1 145 146
M  V30 160 1 145 147
M  V30 161 1 146 148
M  V30 162 2 150 144
M  V30 163 1 151 144
M  V30 164 1 152 150
M  V30 165 9 123 111
M  V30 166 9 116 111
M  V30 167 9 150 111
M  V30 168 9 143 111
M  V30 169 9 136 111
M  V30 170 9 129 111
M  V30 171 1 154 164
M  V30 172 2 154 161
M  V30 173 1 155 154
M  V30 174 2 156 155
M  V30 175 1 156 158
M  V30 176 1 157 155
M  V30 177 2 158 160
M  V30 178 1 159 156
M  V30 179 1 160 161
M  V30 180 1 160 162
M  V30 181 1 161 163
M  V30 182 2 165 159
M  V30 183 1 166 159
M  V30 184 1 167 177
M  V30 185 2 167 174
M  V30 186 1 168 167
M  V30 187 2 169 168
M  V30 188 1 169 171
M  V30 189 1 170 168
M  V30 190 2 171 173
M  V30 191 1 172 169
M  V30 192 1 173 174
M  V30 193 1 173 175
M  V30 194 1 174 176
M  V30 195 2 178 172
M  V30 196 1 179 172
M  V30 197 1 180 178
M  V30 198 1 181 191
M  V30 199 2 181 188
M  V30 200 1 182 181
M  V30 201 2 183 182
M  V30 202 1 183 185
M  V30 203 1 184 182
M  V30 204 2 185 187
M  V30 205 1 186 183
M  V30 206 1 187 188
M  V30 207 1 187 189
M  V30 208 1 188 190
M  V30 209 2 192 186
M  V30 210 1 193 186
M  V30 211 1 194 192
M  V30 212 9 165 153
M  V30 213 9 158 153
M  V30 214 9 192 153
M  V30 215 9 185 153
M  V30 216 9 178 153
M  V30 217 9 171 153
M  V30 218 1 196 206
M  V30 219 2 196 203
M  V30 220 1 197 196
M  V30 221 2 198 197
M  V30 222 1 198 200
M  V30 223 1 199 197
M  V30 224 2 200 202
M  V30 225 1 201 198
M  V30 226 1 202 203
M  V30 227 1 202 204
M  V30 228 1 203 205
M  V30 229 2 207 201
M  V30 230 1 208 201
M  V30 231 1 209 219
M  V30 232 2 209 216
M  V30 233 1 210 209
M  V30 234 2 211 210
M  V30 235 1 211 213
M  V30 236 1 212 210
M  V30 237 2 213 215
M  V30 238 1 214 211
M  V30 239 1 215 216
M  V30 240 1 215 217
M  V30 241 1 216 218
M  V30 242 2 220 214
M  V30 243 1 221 214
M  V30 244 1 222 220
M  V30 245 1 223 233
M  V30 246 2 223 230
M  V30 247 1 224 223
M  V30 248 2 225 224
M  V30 249 1 225 227
M  V30 250 1 226 224
M  V30 251 2 227 229
M  V30 252 1 228 225
M  V30 253 1 229 230
M  V30 254 1 229 231
M  V30 255 1 230 232
M  V30 256 2 234 228
M  V30 257 1 235 228
M  V30 258 1 236 234
M  V30 259 9 207 195
M  V30 260 9 200 195
M  V30 261 9 234 195
M  V30 262 9 227 195
M  V30 263 9 220 195
M  V30 264 9 213 195
M  V30 265 1 1 123
M  V30 266 1 34 165
M  V30 267 1 24 207
M  V30 268 1 13 81
M  V30 END BOND
M  V30 END CTAB
M  END

$$$$
