
     RDKit          3D

  0  0  0  0  0  0  0  0  0  0999 V3000
M  V30 BEGIN CTAB
M  V30 COUNTS 220 248 0 0 0
M  V30 BEGIN ATOM
M  V30 1 C 4.5928 3.9132 -0.2327 0
M  V30 2 C 5.0476 2.7910 -0.9319 0
M  V30 3 C 4.2860 1.6447 -1.0119 0
M  V30 4 C 3.0437 1.5518 -0.3704 0
M  V30 5 N 2.2889 0.3720 -0.4441 0
M  V30 6 C 2.9504 -0.8593 -0.4526 0
M  V30 7 C 4.0950 -1.0614 0.3289 0
M  V30 8 C 4.7620 -2.2665 0.3202 0
M  V30 9 C 4.3131 -3.3364 -0.4653 0
M  V30 10 C 3.1542 -3.1431 -1.2252 0
M  V30 11 C 2.4918 -1.9341 -1.2253 0
M  V30 12 C 0.8800 0.4038 -0.4800 0
M  V30 13 C 0.1347 -0.5941 0.1540 0
M  V30 14 C -1.2446 -0.5950 0.1094 0
M  V30 15 C -1.9470 0.4063 -0.5670 0
M  V30 16 N -3.3516 0.3931 -0.6160 0
M  V30 17 C -4.0441 -0.8204 -0.6859 0
M  V30 18 C -3.5414 -1.9090 -1.4111 0
M  V30 19 C -4.2233 -3.1063 -1.4647 0
M  V30 20 C -5.4468 -3.2790 -0.8077 0
M  V30 21 C -5.9493 -2.1902 -0.0823 0
M  V30 22 C -5.2651 -0.9947 -0.0220 0
M  V30 23 C -4.0724 1.6012 -0.5788 0
M  V30 24 C -5.2104 1.7758 -1.3717 0
M  V30 25 C -5.9365 2.9473 -1.3244 0
M  V30 26 C -5.5602 4.0023 -0.4818 0
M  V30 27 C -4.4041 3.8365 0.2851 0
M  V30 28 C -3.6784 2.6621 0.2419 0
M  V30 29 C -1.2023 1.4151 -1.1842 0
M  V30 30 C 0.1794 1.4127 -1.1443 0
M  V30 31 C 2.6004 2.6629 0.3530 0
M  V30 32 C 3.3536 3.8180 0.4138 0
M  V30 33 H 5.9891 2.8510 -1.4552 0
M  V30 34 H 4.6453 0.8092 -1.5933 0
M  V30 35 H 4.4515 -0.2608 0.9593 0
M  V30 36 H 5.6163 -2.3991 0.9668 0
M  V30 37 H 2.8144 -3.9423 -1.8661 0
M  V30 38 H 1.6217 -1.7994 -1.8502 0
M  V30 39 H 0.6480 -1.3697 0.7036 0
M  V30 40 H -1.7929 -1.3713 0.6226 0
M  V30 41 H -2.6176 -1.7956 -1.9587 0
M  V30 42 H -3.8427 -3.9140 -2.0717 0
M  V30 43 H -6.8655 -2.2952 0.4787 0
M  V30 44 H -5.6729 -0.1825 0.5602 0
M  V30 45 H -5.5208 0.9866 -2.0395 0
M  V30 46 H -6.7845 3.0607 -1.9826 0
M  V30 47 H -4.1044 4.6249 0.9572 0
M  V30 48 H -2.8053 2.5516 0.8678 0
M  V30 49 H -1.7138 2.1985 -1.7222 0
M  V30 50 H 0.7235 2.1925 -1.6550 0
M  V30 51 H 1.6610 2.6111 0.8827 0
M  V30 52 H 2.9989 4.6433 1.0134 0
M  V30 53 Zn -5.3640 -6.5572 -0.8635 0 CHG=2
M  V30 54 C -10.1393 -7.0818 -1.1429 0
M  V30 55 C -9.4927 -5.8553 -1.0772 0
M  V30 56 C -8.0996 -5.8216 -0.9911 0
M  V30 57 H -10.0594 -4.9375 -1.0939 0
M  V30 58 N -7.3670 -6.9493 -0.9735 0
M  V30 59 C -7.3848 -4.5628 -0.9248 0
M  V30 60 C -7.9908 -8.1185 -1.0372 0
M  V30 61 C -9.3723 -8.2379 -1.1207 0
M  V30 62 H -7.3650 -9.0000 -1.0156 0
M  V30 63 H -9.8311 -9.2129 -1.1668 0
M  V30 64 H -11.2151 -7.1360 -1.2093 0
M  V30 65 N -6.1027 -4.5089 -0.8890 0
M  V30 66 H -7.9985 -3.6632 -0.9397 0
M  V30 67 C -5.1324 -6.5767 4.0895 0
M  V30 68 C -4.1256 -6.1071 3.2559 0
M  V30 69 C -4.2948 -6.1981 1.8762 0
M  V30 70 H -3.2231 -5.6823 3.6680 0
M  V30 71 N -5.4045 -6.7074 1.3191 0
M  V30 72 C -3.2550 -5.7731 0.9551 0
M  V30 73 C -6.3575 -7.1567 2.1170 0
M  V30 74 C -6.2663 -7.1200 3.5080 0
M  V30 75 H -7.2330 -7.5741 1.6407 0
M  V30 76 H -7.0681 -7.5106 4.1144 0
M  V30 77 H -5.0303 -6.5255 5.1626 0
M  V30 78 N -3.4120 -5.9123 -0.2940 0
M  V30 79 H -2.3529 -5.3549 1.4069 0
M  V30 80 H -2.6435 -5.6084 -0.8822 0
M  V30 81 C -3.9954 -11.1512 -2.0353 0
M  V30 82 C -4.2486 -10.1421 -2.9566 0
M  V30 83 C -4.5884 -8.8745 -2.4896 0
M  V30 84 H -4.1900 -10.3363 -4.0166 0
M  V30 85 N -4.6829 -8.5892 -1.1796 0
M  V30 86 C -4.8663 -7.7791 -3.4100 0
M  V30 87 C -4.4429 -9.5561 -0.3089 0
M  V30 88 C -4.0931 -10.8502 -0.6858 0
M  V30 89 H -4.5380 -9.2973 0.7366 0
M  V30 90 H -3.9155 -11.6040 0.0649 0
M  V30 91 H -3.7379 -12.1461 -2.3653 0
M  V30 92 N -5.0957 -6.6177 -2.9533 0
M  V30 93 H -4.8575 -8.0200 -4.4725 0
M  V30 94 H -5.2985 -5.9088 -3.6531 0
M  V30 95 Zn 7.5743 5.3945 -0.0071 0 CHG=2
M  V30 96 C 5.6853 9.8503 -0.3702 0
M  V30 97 C 4.9284 8.6878 -0.3758 0
M  V30 98 C 5.5709 7.4543 -0.2576 0
M  V30 99 H 3.8548 8.7325 -0.4734 0
M  V30 100 N 6.9050 7.3622 -0.1390 0
M  V30 101 C 4.8136 6.2191 -0.2716 0
M  V30 102 C 7.6240 8.4752 -0.1354 0
M  V30 103 C 7.0623 9.7423 -0.2468 0
M  V30 104 H 8.6935 8.3584 -0.0344 0
M  V30 105 H 7.6911 10.6182 -0.2369 0
M  V30 106 H 5.2149 10.8172 -0.4604 0
M  V30 107 N 5.3735 5.0694 -0.2120 0
M  V30 108 H 3.7327 6.3255 -0.3745 0
M  V30 109 C 7.5451 5.1074 4.9240 0
M  V30 110 C 7.8069 4.0411 4.0730 0
M  V30 111 C 7.7640 4.2508 2.6966 0
M  V30 112 H 8.0498 3.0673 4.4695 0
M  V30 113 N 7.4683 5.4451 2.1595 0
M  V30 114 C 8.0680 3.1807 1.7576 0
M  V30 115 C 7.2244 6.4571 2.9752 0
M  V30 116 C 7.2523 6.3399 4.3628 0
M  V30 117 H 7.0055 7.4096 2.5139 0
M  V30 118 H 7.0579 7.2005 4.9830 0
M  V30 119 H 7.5793 4.9797 5.9951 0
M  V30 120 N 7.9913 3.3906 0.5102 0
M  V30 121 H 8.3661 2.2262 2.1922 0
M  V30 122 H 8.2469 2.6101 -0.0867 0
M  V30 123 C 12.3441 6.3425 -0.7151 0
M  V30 124 C 11.4296 6.0726 -1.7267 0
M  V30 125 C 10.1019 5.8250 -1.3862 0
M  V30 126 H 11.7412 6.0526 -2.7598 0
M  V30 127 N 9.6667 5.8421 -0.1128 0
M  V30 128 C 9.1053 5.5316 -2.4040 0
M  V30 129 C 10.5429 6.1063 0.8434 0
M  V30 130 C 11.8897 6.3601 0.5941 0
M  V30 131 H 10.1631 6.1238 1.8557 0
M  V30 132 H 12.5611 6.5702 1.4117 0
M  V30 133 H 13.3806 6.5360 -0.9462 0
M  V30 134 N 7.9166 5.2362 -2.0645 0
M  V30 135 H 9.4394 5.5769 -3.4398 0
M  V30 136 H 7.2808 5.0565 -2.8363 0
M  V30 137 Zn 4.2330 -6.6009 -0.5423 0 CHG=2
M  V30 138 C 9.0325 -7.1063 -0.4873 0
M  V30 139 C 8.3739 -5.8855 -0.4608 0
M  V30 140 C 6.9781 -5.8626 -0.4773 0
M  V30 141 H 8.9316 -4.9627 -0.4290 0
M  V30 142 N 6.2528 -6.9940 -0.5224 0
M  V30 143 C 6.2529 -4.6107 -0.4539 0
M  V30 144 C 6.8884 -8.1577 -0.5503 0
M  V30 145 C 8.2736 -8.2670 -0.5318 0
M  V30 146 H 6.2701 -9.0439 -0.5828 0
M  V30 147 H 8.7418 -9.2382 -0.5516 0
M  V30 148 H 10.1106 -7.1529 -0.4733 0
M  V30 149 N 4.9713 -4.5646 -0.5082 0
M  V30 150 H 6.8582 -3.7057 -0.4216 0
M  V30 151 C 3.6613 -6.7154 4.3852 0
M  V30 152 C 2.7065 -6.2439 3.4934 0
M  V30 153 C 2.9773 -6.2908 2.1276 0
M  V30 154 H 1.7660 -5.8532 3.8503 0
M  V30 155 N 4.1361 -6.7599 1.6391 0
M  V30 156 C 1.9968 -5.8595 1.1457 0
M  V30 157 C 5.0402 -7.2089 2.4924 0
M  V30 158 C 4.8483 -7.2137 3.8733 0
M  V30 159 H 5.9580 -7.5919 2.0700 0
M  V30 160 H 5.6138 -7.6032 4.5256 0
M  V30 161 H 3.4795 -6.7001 5.4489 0
M  V30 162 N 2.2473 -5.9568 -0.0920 0
M  V30 163 H 1.0557 -5.4738 1.5431 0
M  V30 164 H 1.5158 -5.6514 -0.7249 0
M  V30 165 C 3.0028 -11.1792 -1.8460 0
M  V30 166 C 3.2985 -10.1565 -2.7392 0
M  V30 167 C 3.5880 -8.8893 -2.2391 0
M  V30 168 H 3.3107 -10.3396 -3.8027 0
M  V30 169 N 3.5952 -8.6173 -0.9225 0
M  V30 170 C 3.9040 -7.7794 -3.1286 0
M  V30 171 C 3.3126 -9.5964 -0.0785 0
M  V30 172 C 3.0072 -10.8911 -0.4901 0
M  V30 173 H 3.3345 -9.3472 0.9734 0
M  V30 174 H 2.7910 -11.6546 0.2402 0
M  V30 175 H 2.7829 -12.1742 -2.2016 0
M  V30 176 N 4.0980 -6.6224 -2.6443 0
M  V30 177 H 3.9534 -8.0047 -4.1933 0
M  V30 178 H 4.3275 -5.9017 -3.3233 0
M  V30 179 Zn -5.7710 7.3330 -0.3149 0 CHG=2
M  V30 180 C -10.5953 7.3268 -0.5283 0
M  V30 181 C -9.8128 6.1805 -0.5515 0
M  V30 182 C -8.4259 6.2998 -0.4482 0
M  V30 183 H -10.2695 5.2083 -0.6530 0
M  V30 184 N -7.8255 7.4957 -0.3225 0
M  V30 185 C -7.5792 5.1251 -0.4688 0
M  V30 186 C -8.5785 8.5860 -0.2902 0
M  V30 187 C -9.9651 8.5544 -0.3904 0
M  V30 188 H -8.0598 9.5270 -0.1746 0
M  V30 189 H -10.5320 9.4713 -0.3599 0
M  V30 190 H -11.6694 7.2638 -0.6131 0
M  V30 191 N -6.3003 5.1876 -0.3997 0
M  V30 192 H -8.1011 4.1698 -0.5276 0
M  V30 193 C -5.0039 7.6670 4.5429 0
M  V30 194 C -3.9955 7.5448 3.5951 0
M  V30 195 C -4.3444 7.4307 2.2515 0
M  V30 196 H -2.9578 7.5417 3.8916 0
M  V30 197 N -5.6218 7.4319 1.8374 0
M  V30 198 C -3.3333 7.3055 1.2118 0
M  V30 199 C -6.5770 7.5530 2.7430 0
M  V30 200 C -6.3192 7.6726 4.1076 0
M  V30 201 H -7.5938 7.5611 2.3774 0
M  V30 202 H -7.1346 7.7736 4.8061 0
M  V30 203 H -4.7668 7.7606 5.5915 0
M  V30 204 N -3.6844 7.1327 0.0064 0
M  V30 205 H -2.2935 7.3613 1.5377 0
M  V30 206 H -2.9368 7.0586 -0.6757 0
M  V30 207 C -4.9504 12.0847 -1.4394 0
M  V30 208 C -5.0986 11.0617 -2.3683 0
M  V30 209 C -5.3271 9.7652 -1.9122 0
M  V30 210 H -5.0390 11.2658 -3.4263 0
M  V30 211 N -5.4124 9.4643 -0.6047 0
M  V30 212 C -5.4867 8.6574 -2.8431 0
M  V30 213 C -5.2780 10.4457 0.2727 0
M  V30 214 C -5.0439 11.7690 -0.0931 0
M  V30 215 H -5.3652 10.1759 1.3163 0
M  V30 216 H -4.9449 12.5309 0.6638 0
M  V30 217 H -4.7725 13.0995 -1.7608 0
M  V30 218 N -5.6234 7.4728 -2.4063 0
M  V30 219 H -5.4765 8.9095 -3.9030 0
M  V30 220 H -5.7375 6.7600 -3.1211 0
M  V30 END ATOM
M  V30 BEGIN BOND
M  V30 1 2 1 2
M  V30 2 1 2 3
M  V30 3 2 3 4
M  V30 4 1 4 5
M  V30 5 1 5 6
M  V30 6 2 6 7
M  V30 7 1 7 8
M  V30 8 2 8 9
M  V30 9 1 9 10
M  V30 10 2 10 11
M  V30 11 1 5 12
M  V30 12 2 12 13
M  V30 13 1 13 14
M  V30 14 2 14 15
M  V30 15 1 15 16
M  V30 16 1 16 17
M  V30 17 2 17 18
M  V30 18 1 18 19
M  V30 19 2 19 20
M  V30 20 1 20 21
M  V30 21 2 21 22
M  V30 22 1 16 23
M  V30 23 2 23 24
M  V30 24 1 24 25
M  V30 25 2 25 26
M  V30 26 1 26 27
M  V30 27 2 27 28
M  V30 28 1 15 29
M  V30 29 2 29 30
M  V30 30 1 4 31
M  V30 31 2 31 32
M  V30 32 1 32 1
M  V30 33 1 11 6
M  V30 34 1 30 12
M  V30 35 1 22 17
M  V30 36 1 28 23
M  V30 37 1 2 33
M  V30 38 1 3 34
M  V30 39 1 7 35
M  V30 40 1 8 36
M  V30 41 1 10 37
M  V30 42 1 11 38
M  V30 43 1 13 39
M  V30 44 1 14 40
M  V30 45 1 18 41
M  V30 46 1 19 42
M  V30 47 1 21 43
M  V30 48 1 22 44
M  V30 49 1 24 45
M  V30 50 1 25 46
M  V30 51 1 27 47
M  V30 52 1 28 48
M  V30 53 1 29 49
M  V30 54 1 30 50
M  V30 55 1 31 51
M  V30 56 1 32 52
M  V30 57 1 54 64
M  V30 58 2 54 61
M  V30 59 1 55 54
M  V30 60 2 56 55
M  V30 61 1 56 58
M  V30 62 1 57 55
M  V30 63 2 58 60
M  V30 64 1 59 56
M  V30 65 1 60 61
M  V30 66 1 60 62
M  V30 67 1 61 63
M  V30 68 2 65 59
M  V30 69 1 66 59
M  V30 70 1 67 77
M  V30 71 2 67 74
M  V30 72 1 68 67
M  V30 73 2 69 68
M  V30 74 1 69 71
M  V30 75 1 70 68
M  V30 76 2 71 73
M  V30 77 1 72 69
M  V30 78 1 73 74
M  V30 79 1 73 75
M  V30 80 1 74 76
M  V30 81 2 78 72
M  V30 82 1 79 72
M  V30 83 1 80 78
M  V30 84 1 81 91
M  V30 85 2 81 88
M  V30 86 1 82 81
M  V30 87 2 83 82
M  V30 88 1 83 85
M  V30 89 1 84 82
M  V30 90 2 85 87
M  V30 91 1 86 83
M  V30 92 1 87 88
M  V30 93 1 87 89
M  V30 94 1 88 90
M  V30 95 2 92 86
M  V30 96 1 93 86
M  V30 97 1 94 92
M  V30 98 9 65 53
M  V30 99 9 58 53
M  V30 100 9 78 53
M  V30 101 9 71 53
M  V30 102 9 92 53
M  V30 103 9 85 53
M  V30 104 1 96 106
M  V30 105 2 96 103
M  V30 106 1 97 96
M  V30 107 2 98 97
M  V30 108 1 98 100
M  V30 109 1 99 97
M  V30 110 2 100 102
M  V30 111 1 101 98
M  V30 112 1 102 103
M  V30 113 1 102 104
M  V30 114 1 103 105
M  V30 115 2 107 101
M  V30 116 1 108 101
M  V30 117 1 109 119
M  V30 118 2 109 116
M  V30 119 1 110 109
M  V30 120 2 111 110
M  V30 121 1 111 113
M  V30 122 1 112 110
M  V30 123 2 113 115
M  V30 124 1 114 111
M  V30 125 1 115 116
M  V30 126 1 115 117
M  V30 127 1 116 118
M  V30 128 2 120 114
M  V30 129 1 121 114
M  V30 130 1 122 120
M  V30 131 1 123 133
M  V30 132 2 123 130
M  V30 133 1 124 123
M  V30 134 2 125 124
M  V30 135 1 125 127
M  V30 136 1 126 124
M  V30 137 2 127 129
M  V30 138 1 128 125
M  V30 139 1 129 130
M  V30 140 1 129 131
M  V30 141 1 130 132
M  V30 142 2 134 128
M  V30 143 1 135 128
M  V30 144 1 136 134
M  V30 145 9 107 95
M  V30 146 9 100 95
M  V30 147 9 134 95
M  V30 148 9 127 95
M  V30 149 9 120 95
M  V30 150 9 113 95
M  V30 151 1 138 148
M  V30 152 2 138 145
M  V30 153 1 139 138
M  V30 154 2 140 139
M  V30 155 1 140 142
M  V30 156 1 141 139
M  V30 157 2 142 144
M  V30 158 1 143 140
M  V30 159 1 144 145
M  V30 160 1 144 146
M  V30 161 1 145 147
M  V30 162 2 149 143
M  V30 163 1 150 143
M  V30 164 1 151 161
M  V30 165 2 151 158
M  V30 166 1 152 151
M  V30 167 2 153 152
M  V30 168 1 153 155
M  V30 169 1 154 152
M  V30 170 2 155 157
M  V30 171 1 156 153
M  V30 172 1 157 158
M  V30 173 1 157 159
M  V30 174 1 158 160
M  V30 175 2 162 156
M  V30 176 1 163 156
M  V30 177 1 164 162
M  V30 178 1 165 175
M  V30 179 2 165 172
M  V30 180 1 166 165
M  V30 181 2 167 166
M  V30 182 1 167 169
M  V30 183 1 168 166
M  V30 184 2 169 171
M  V30 185 1 170 167
M  V30 186 1 171 172
M  V30 187 1 171 173
M  V30 188 1 172 174
M  V30 189 2 176 170
M  V30 190 1 177 170
M  V30 191 1 178 176
M  V30 192 9 149 137
M  V30 193 9 142 137
M  V30 194 9 176 137
M  V30 195 9 169 137
M  V30 196 9 162 137
M  V30 197 9 155 137
M  V30 198 1 180 190
M  V30 199 2 180 187
M  V30 200 1 181 180
M  V30 201 2 182 181
M  V30 202 1 182 184
M  V30 203 1 183 181
M  V30 204 2 184 186
M  V30 205 1 185 182
M  V30 206 1 186 187
M  V30 207 1 186 188
M  V30 208 1 187 189
M  V30 209 2 191 185
M  V30 210 1 192 185
M  V30 211 1 193 203
M  V30 212 2 193 200
M  V30 213 1 194 193
M  V30 214 2 195 194
M  V30 215 1 195 197
M  V30 216 1 196 194
M  V30 217 2 197 199
M  V30 218 1 198 195
M  V30 219 1 199 200
M  V30 220 1 199 201
M  V30 221 1 200 202
M  V30 222 2 204 198
M  V30 223 1 205 198
M  V30 224 1 206 204
M  V30 225 1 207 217
M  V30 226 2 207 214
M  V30 227 1 208 207
M  V30 228 2 209 208
M  V30 229 1 209 211
M  V30 230 1 210 208
M  V30 231 2 211 213
M  V30 232 1 212 209
M  V30 233 1 213 214
M  V30 234 1 213 215
M  V30 235 1 214 216
M  V30 236 2 218 212
M  V30 237 1 219 212
M  V30 238 1 220 218
M  V30 239 9 191 179
M  V30 240 9 184 179
M  V30 241 9 218 179
M  V30 242 9 211 179
M  V30 243 9 204 179
M  V30 244 9 197 179
M  V30 245 1 1 107
M  V30 246 1 9 149
M  V30 247 1 20 65
M  V30 248 1 26 191
M  V30 END BOND
M  V30 END CTAB
M  END

$$$$
