
     RDKit          3D

  0  0  0  0  0  0  0  0  0  0999 V3000
M  V30 BEGIN CTAB
M  V30 COUNTS 226 255 0 0 0
M  V30 BEGIN ATOM
M  V30 1 C -4.2038 -4.9492 -1.3683 0
M  V30 2 C -3.3050 -5.3623 -0.3822 0
M  V30 3 C -2.1188 -4.6825 -0.1828 0
M  V30 4 C -1.7678 -3.5813 -0.9669 0
M  V30 5 C -0.4940 -2.8702 -0.7393 0
M  V30 6 C 0.6680 -3.5757 -0.4394 0
M  V30 7 C 1.8649 -2.9069 -0.1919 0
M  V30 8 C 3.0988 -3.6809 0.0621 0
M  V30 9 C 4.0441 -3.2772 1.0058 0
M  V30 10 C 5.2132 -3.9889 1.2035 0
M  V30 11 C 5.4721 -5.1534 0.4762 0
M  V30 12 C 4.5082 -5.5912 -0.4334 0
M  V30 13 C 3.3572 -4.8586 -0.6461 0
M  V30 14 C 1.8719 -1.5111 -0.1996 0
M  V30 15 C 0.7279 -0.7693 -0.5072 0
M  V30 16 C 0.7251 0.7157 -0.5161 0
M  V30 17 C -0.4806 1.4192 -0.4592 0
M  V30 18 C -0.5298 2.8103 -0.4981 0
M  V30 19 C -1.8284 3.5120 -0.5203 0
M  V30 20 C -2.0428 4.6851 0.2051 0
M  V30 21 C -3.2457 5.3627 0.1404 0
M  V30 22 C -4.2940 4.8793 -0.6463 0
M  V30 23 C -4.0987 3.6881 -1.3487 0
M  V30 24 C -2.8870 3.0287 -1.2948 0
M  V30 25 C 0.6642 3.5247 -0.5380 0
M  V30 26 C 1.8894 2.8618 -0.5652 0
M  V30 27 C 3.1461 3.6410 -0.5656 0
M  V30 28 C 3.2654 4.8347 -1.2826 0
M  V30 29 C 4.4278 5.5807 -1.2531 0
M  V30 30 C 5.5369 5.1431 -0.5274 0
M  V30 31 C 5.4231 3.9558 0.2001 0
M  V30 32 C 4.2471 3.2296 0.1870 0
M  V30 33 C 1.9028 1.4658 -0.5775 0
M  V30 34 C -0.4382 -1.4802 -0.8020 0
M  V30 35 C -2.6742 -3.1733 -1.9492 0
M  V30 36 C -3.8738 -3.8315 -2.1380 0
M  V30 37 H -3.5566 -6.1976 0.2547 0
M  V30 38 H -1.4581 -5.0056 0.6069 0
M  V30 39 H 0.6425 -4.6541 -0.4076 0
M  V30 40 H 3.8596 -2.3995 1.6068 0
M  V30 41 H 5.9176 -3.6604 1.9538 0
M  V30 42 H 4.6971 -6.4864 -1.0062 0
M  V30 43 H 2.6586 -5.1923 -1.3983 0
M  V30 44 H 2.7971 -1.0045 0.0252 0
M  V30 45 H -1.4131 0.8881 -0.3499 0
M  V30 46 H -1.2587 5.0691 0.8394 0
M  V30 47 H -3.3875 6.2563 0.7302 0
M  V30 48 H -4.8922 3.3199 -1.9826 0
M  V30 49 H -2.7426 2.1408 -1.8923 0
M  V30 50 H 0.6387 4.6035 -0.5523 0
M  V30 51 H 2.4438 5.1734 -1.8954 0
M  V30 52 H 4.5051 6.4901 -1.8295 0
M  V30 53 H 6.2498 3.6226 0.8106 0
M  V30 54 H 4.1787 2.3350 0.7874 0
M  V30 55 H 2.8549 0.9669 -0.6679 0
M  V30 56 H -1.3379 -0.9527 -1.0757 0
M  V30 57 H -2.4208 -2.3470 -2.5965 0
M  V30 58 H -4.5473 -3.5196 -2.9227 0
M  V30 59 Zn 7.1012 8.0304 -0.2544 0 CHG=2
M  V30 60 C 11.4824 6.0762 -1.0023 0
M  V30 61 C 10.3010 5.3484 -0.9734 0
M  V30 62 C 9.0981 6.0141 -0.7377 0
M  V30 63 H 10.3091 4.2817 -1.1348 0
M  V30 64 N 9.0498 7.3416 -0.5427 0
M  V30 65 C 7.8398 5.2925 -0.7019 0
M  V30 66 C 10.1803 8.0318 -0.5704 0
M  V30 67 C 11.4213 7.4455 -0.7931 0
M  V30 68 H 10.0991 9.0964 -0.4025 0
M  V30 69 H 12.3138 8.0506 -0.8019 0
M  V30 70 H 12.4275 5.5877 -1.1831 0
M  V30 71 N 6.7207 5.8905 -0.5542 0
M  V30 72 H 7.8992 4.2122 -0.8416 0
M  V30 73 C 7.1404 7.7623 4.6795 0
M  V30 74 C 6.0160 8.0425 3.9135 0
M  V30 75 C 6.1352 8.0678 2.5259 0
M  V30 76 H 5.0664 8.2471 4.3832 0
M  V30 77 N 7.2964 7.8219 1.8996 0
M  V30 78 C 4.9986 8.3898 1.6736 0
M  V30 79 C 8.3633 7.5567 2.6347 0
M  V30 80 C 8.3375 7.5171 4.0264 0
M  V30 81 H 9.2858 7.3748 2.1019 0
M  V30 82 H 9.2394 7.3067 4.5788 0
M  V30 83 H 7.0832 7.7444 5.7569 0
M  V30 84 N 5.1362 8.4071 0.4144 0
M  V30 85 H 4.0611 8.6155 2.1823 0
M  V30 86 H 4.3094 8.6587 -0.1183 0
M  V30 87 C 8.0447 12.8334 -0.7230 0
M  V30 88 C 7.6983 11.9879 -1.7702 0
M  V30 89 C 7.4658 10.6416 -1.4999 0
M  V30 90 H 7.6088 12.3659 -2.7771 0
M  V30 91 N 7.5676 10.1252 -0.2623 0
M  V30 92 C 7.0981 9.7125 -2.5580 0
M  V30 93 C 7.9040 10.9359 0.7280 0
M  V30 94 C 8.1504 12.2949 0.5494 0
M  V30 95 H 7.9883 10.4906 1.7096 0
M  V30 96 H 8.4223 12.9107 1.3920 0
M  V30 97 H 8.2295 13.8820 -0.8995 0
M  V30 98 N 6.8229 8.5056 -2.2743 0
M  V30 99 H 7.0742 10.1125 -3.5710 0
M  V30 100 H 6.5889 7.9174 -3.0691 0
M  V30 101 Zn -7.5272 4.7821 -0.5986 0 CHG=2
M  V30 102 C -8.1023 9.5104 -1.4128 0
M  V30 103 C -6.8714 8.8852 -1.2658 0
M  V30 104 C -6.8309 7.5131 -1.0187 0
M  V30 105 H -5.9563 9.4508 -1.3466 0
M  V30 106 N -7.9522 6.7783 -0.9177 0
M  V30 107 C -5.5683 6.8109 -0.8824 0
M  V30 108 C -9.1248 7.3819 -1.0548 0
M  V30 109 C -9.2527 8.7433 -1.3029 0
M  V30 110 H -10.0021 6.7572 -0.9591 0
M  V30 111 H -10.2304 9.1864 -1.4062 0
M  V30 112 H -8.1632 10.5701 -1.6079 0
M  V30 113 N -5.5239 5.5387 -0.7566 0
M  V30 114 H -4.6646 7.4173 -0.9355 0
M  V30 115 C -7.4882 4.9998 4.3383 0
M  V30 116 C -6.9875 3.9390 3.5940 0
M  V30 117 C -7.0858 3.9848 2.2053 0
M  V30 118 H -6.5357 3.0888 4.0813 0
M  V30 119 N -7.6337 5.0243 1.5556 0
M  V30 120 C -6.6190 2.8861 1.3768 0
M  V30 121 C -8.1091 6.0305 2.2694 0
M  V30 122 C -8.0650 6.0628 3.6623 0
M  V30 123 H -8.5529 6.8480 1.7194 0
M  V30 124 H -8.4765 6.9037 4.1976 0
M  V30 125 H -7.4336 4.9920 5.4160 0
M  V30 126 N -6.7845 2.9207 0.1206 0
M  V30 127 H -6.1447 2.0549 1.9011 0
M  V30 128 H -6.4350 2.1220 -0.3976 0
M  V30 129 C -12.1197 3.2420 -1.4999 0
M  V30 130 C -11.1468 3.4292 -2.4741 0
M  V30 131 C -9.8715 3.8296 -2.0831 0
M  V30 132 H -11.3741 3.2755 -3.5179 0
M  V30 133 N -9.5461 4.0453 -0.7974 0
M  V30 134 C -8.8119 4.0422 -3.0609 0
M  V30 135 C -10.4777 3.8659 0.1244 0
M  V30 136 C -11.7763 3.4620 -0.1753 0
M  V30 137 H -10.1863 4.0557 1.1479 0
M  V30 138 H -12.5003 3.3364 0.6140 0
M  V30 139 H -13.1200 2.9410 -1.7710 0
M  V30 140 N -7.6427 4.3336 -2.6647 0
M  V30 141 H -9.0856 3.9330 -4.1100 0
M  V30 142 H -6.9586 4.4865 -3.4008 0
M  V30 143 Zn 7.0329 -8.0194 0.9219 0 CHG=2
M  V30 144 C 11.4410 -5.9825 0.8248 0
M  V30 145 C 10.2535 -5.2709 0.7273 0
M  V30 146 C 9.0420 -5.9607 0.7729 0
M  V30 147 H 10.2637 -4.1982 0.6134 0
M  V30 148 N 8.9918 -7.2956 0.9071 0
M  V30 149 C 7.7778 -5.2579 0.6573 0
M  V30 150 C 10.1281 -7.9703 1.0012 0
M  V30 151 C 11.3772 -7.3603 0.9667 0
M  V30 152 H 10.0445 -9.0419 1.1140 0
M  V30 153 H 12.2737 -7.9537 1.0493 0
M  V30 154 H 12.3929 -5.4753 0.7911 0
M  V30 155 N 6.6620 -5.8780 0.6145 0
M  V30 156 H 7.8352 -4.1722 0.5677 0
M  V30 157 C 6.3708 -7.7358 5.8076 0
M  V30 158 C 5.3685 -8.0274 4.8911 0
M  V30 159 C 5.6853 -8.0654 3.5353 0
M  V30 160 H 4.3617 -8.2305 5.2217 0
M  V30 161 N 6.9239 -7.8213 3.0796 0
M  V30 162 C 4.6833 -8.3989 2.5321 0
M  V30 163 C 7.8742 -7.5468 3.9575 0
M  V30 164 C 7.6490 -7.4939 5.3307 0
M  V30 165 H 8.8636 -7.3681 3.5608 0
M  V30 166 H 8.4620 -7.2755 6.0046 0
M  V30 167 H 6.1595 -7.7067 6.8654 0
M  V30 168 N 4.9979 -8.4208 1.3051 0
M  V30 169 H 3.6846 -8.6291 2.9039 0
M  V30 170 H 4.2564 -8.6808 0.6622 0
M  V30 171 C 8.0860 -12.8038 0.5467 0
M  V30 172 C 7.8739 -11.9527 -0.5314 0
M  V30 173 C 7.5944 -10.6109 -0.2849 0
M  V30 174 H 7.9227 -12.3231 -1.5439 0
M  V30 175 N 7.5253 -10.1040 0.9590 0
M  V30 176 C 7.3632 -9.6757 -1.3756 0
M  V30 177 C 7.7352 -10.9196 1.9795 0
M  V30 178 C 8.0167 -12.2749 1.8256 0
M  V30 179 H 7.6840 -10.4816 2.9667 0
M  V30 180 H 8.1805 -12.8953 2.6924 0
M  V30 181 H 8.3026 -13.8493 0.3889 0
M  V30 182 N 7.0408 -8.4735 -1.1224 0
M  V30 183 H 7.4797 -10.0669 -2.3857 0
M  V30 184 H 6.9108 -7.8805 -1.9371 0
M  V30 185 Zn -7.4123 -4.8274 -1.7461 0 CHG=2
M  V30 186 C -7.9722 -9.6008 -2.2125 0
M  V30 187 C -6.7544 -8.9744 -1.9831 0
M  V30 188 C -6.7181 -7.5864 -1.8524 0
M  V30 189 H -5.8459 -9.5517 -1.9115 0
M  V30 190 N -7.8305 -6.8368 -1.9444 0
M  V30 191 C -5.4687 -6.8844 -1.6230 0
M  V30 192 C -8.9908 -7.4411 -2.1608 0
M  V30 193 C -9.1141 -8.8183 -2.2999 0
M  V30 194 H -9.8620 -6.8035 -2.2212 0
M  V30 195 H -10.0820 -9.2617 -2.4722 0
M  V30 196 H -8.0294 -10.6731 -2.3199 0
M  V30 197 N -5.4186 -5.6067 -1.5970 0
M  V30 198 H -4.5760 -7.4990 -1.5103 0
M  V30 199 C -7.7968 -4.7408 3.1914 0
M  V30 200 C -7.2006 -3.7430 2.4311 0
M  V30 201 C -7.1946 -3.8650 1.0436 0
M  V30 202 H -6.7528 -2.8829 2.9047 0
M  V30 203 N -7.7305 -4.9211 0.4127 0
M  V30 204 C -6.6249 -2.8321 0.1927 0
M  V30 205 C -8.2976 -5.8675 1.1411 0
M  V30 206 C -8.3618 -5.8207 2.5326 0
M  V30 207 H -8.7289 -6.6998 0.6035 0
M  V30 208 H -8.8452 -6.6143 3.0799 0
M  V30 209 H -7.8235 -4.6734 4.2681 0
M  V30 210 N -6.7001 -2.9331 -1.0673 0
M  V30 211 H -6.1571 -1.9894 0.7054 0
M  V30 212 H -6.2834 -2.1807 -1.6053 0
M  V30 213 C -11.8504 -3.2786 -3.1933 0
M  V30 214 C -10.7809 -3.5167 -4.0478 0
M  V30 215 C -9.5630 -3.9184 -3.5049 0
M  V30 216 H -10.8914 -3.4002 -5.1150 0
M  V30 217 N -9.3825 -4.0854 -2.1839 0
M  V30 218 C -8.4078 -4.1881 -4.3529 0
M  V30 219 C -10.4054 -3.8570 -1.3766 0
M  V30 220 C -11.6567 -3.4502 -1.8316 0
M  V30 221 H -10.2291 -4.0087 -0.3208 0
M  V30 222 H -12.4602 -3.2860 -1.1313 0
M  V30 223 H -12.8099 -2.9759 -3.5838 0
M  V30 224 N -7.2980 -4.4934 -3.8204 0
M  V30 225 H -8.5611 -4.1075 -5.4286 0
M  V30 226 H -6.5411 -4.6846 -4.4716 0
M  V30 END ATOM
M  V30 BEGIN BOND
M  V30 1 2 1 2
M  V30 2 1 2 3
M  V30 3 2 3 4
M  V30 4 1 4 5
M  V30 5 2 5 6
M  V30 6 1 6 7
M  V30 7 1 7 8
M  V30 8 2 8 9
M  V30 9 1 9 10
M  V30 10 2 10 11
M  V30 11 1 11 12
M  V30 12 2 12 13
M  V30 13 2 7 14
M  V30 14 1 14 15
M  V30 15 1 15 16
M  V30 16 2 16 17
M  V30 17 1 17 18
M  V30 18 1 18 19
M  V30 19 2 19 20
M  V30 20 1 20 21
M  V30 21 2 21 22
M  V30 22 1 22 23
M  V30 23 2 23 24
M  V30 24 2 18 25
M  V30 25 1 25 26
M  V30 26 1 26 27
M  V30 27 2 27 28
M  V30 28 1 28 29
M  V30 29 2 29 30
M  V30 30 1 30 31
M  V30 31 2 31 32
M  V30 32 2 26 33
M  V30 33 2 15 34
M  V30 34 1 4 35
M  V30 35 2 35 36
M  V30 36 1 36 1
M  V30 37 1 34 5
M  V30 38 1 13 8
M  V30 39 1 33 16
M  V30 40 1 24 19
M  V30 41 1 32 27
M  V30 42 1 2 37
M  V30 43 1 3 38
M  V30 44 1 6 39
M  V30 45 1 9 40
M  V30 46 1 10 41
M  V30 47 1 12 42
M  V30 48 1 13 43
M  V30 49 1 14 44
M  V30 50 1 17 45
M  V30 51 1 20 46
M  V30 52 1 21 47
M  V30 53 1 23 48
M  V30 54 1 24 49
M  V30 55 1 25 50
M  V30 56 1 28 51
M  V30 57 1 29 52
M  V30 58 1 31 53
M  V30 59 1 32 54
M  V30 60 1 33 55
M  V30 61 1 34 56
M  V30 62 1 35 57
M  V30 63 1 36 58
M  V30 64 1 60 70
M  V30 65 2 60 67
M  V30 66 1 61 60
M  V30 67 2 62 61
M  V30 68 1 62 64
M  V30 69 1 63 61
M  V30 70 2 64 66
M  V30 71 1 65 62
M  V30 72 1 66 67
M  V30 73 1 66 68
M  V30 74 1 67 69
M  V30 75 2 71 65
M  V30 76 1 72 65
M  V30 77 1 73 83
M  V30 78 2 73 80
M  V30 79 1 74 73
M  V30 80 2 75 74
M  V30 81 1 75 77
M  V30 82 1 76 74
M  V30 83 2 77 79
M  V30 84 1 78 75
M  V30 85 1 79 80
M  V30 86 1 79 81
M  V30 87 1 80 82
M  V30 88 2 84 78
M  V30 89 1 85 78
M  V30 90 1 86 84
M  V30 91 1 87 97
M  V30 92 2 87 94
M  V30 93 1 88 87
M  V30 94 2 89 88
M  V30 95 1 89 91
M  V30 96 1 90 88
M  V30 97 2 91 93
M  V30 98 1 92 89
M  V30 99 1 93 94
M  V30 100 1 93 95
M  V30 101 1 94 96
M  V30 102 2 98 92
M  V30 103 1 99 92
M  V30 104 1 100 98
M  V30 105 9 71 59
M  V30 106 9 64 59
M  V30 107 9 84 59
M  V30 108 9 77 59
M  V30 109 9 98 59
M  V30 110 9 91 59
M  V30 111 1 102 112
M  V30 112 2 102 109
M  V30 113 1 103 102
M  V30 114 2 104 103
M  V30 115 1 104 106
M  V30 116 1 105 103
M  V30 117 2 106 108
M  V30 118 1 107 104
M  V30 119 1 108 109
M  V30 120 1 108 110
M  V30 121 1 109 111
M  V30 122 2 113 107
M  V30 123 1 114 107
M  V30 124 1 115 125
M  V30 125 2 115 122
M  V30 126 1 116 115
M  V30 127 2 117 116
M  V30 128 1 117 119
M  V30 129 1 118 116
M  V30 130 2 119 121
M  V30 131 1 120 117
M  V30 132 1 121 122
M  V30 133 1 121 123
M  V30 134 1 122 124
M  V30 135 2 126 120
M  V30 136 1 127 120
M  V30 137 1 128 126
M  V30 138 1 129 139
M  V30 139 2 129 136
M  V30 140 1 130 129
M  V30 141 2 131 130
M  V30 142 1 131 133
M  V30 143 1 132 130
M  V30 144 2 133 135
M  V30 145 1 134 131
M  V30 146 1 135 136
M  V30 147 1 135 137
M  V30 148 1 136 138
M  V30 149 2 140 134
M  V30 150 1 141 134
M  V30 151 1 142 140
M  V30 152 9 113 101
M  V30 153 9 106 101
M  V30 154 9 126 101
M  V30 155 9 119 101
M  V30 156 9 140 101
M  V30 157 9 133 101
M  V30 158 1 144 154
M  V30 159 2 144 151
M  V30 160 1 145 144
M  V30 161 2 146 145
M  V30 162 1 146 148
M  V30 163 1 147 145
M  V30 164 2 148 150
M  V30 165 1 149 146
M  V30 166 1 150 151
M  V30 167 1 150 152
M  V30 168 1 151 153
M  V30 169 2 155 149
M  V30 170 1 156 149
M  V30 171 1 157 167
M  V30 172 2 157 164
M  V30 173 1 158 157
M  V30 174 2 159 158
M  V30 175 1 159 161
M  V30 176 1 160 158
M  V30 177 2 161 163
M  V30 178 1 162 159
M  V30 179 1 163 164
M  V30 180 1 163 165
M  V30 181 1 164 166
M  V30 182 2 168 162
M  V30 183 1 169 162
M  V30 184 1 170 168
M  V30 185 1 171 181
M  V30 186 2 171 178
M  V30 187 1 172 171
M  V30 188 2 173 172
M  V30 189 1 173 175
M  V30 190 1 174 172
M  V30 191 2 175 177
M  V30 192 1 176 173
M  V30 193 1 177 178
M  V30 194 1 177 179
M  V30 195 1 178 180
M  V30 196 2 182 176
M  V30 197 1 183 176
M  V30 198 1 184 182
M  V30 199 9 155 143
M  V30 200 9 148 143
M  V30 201 9 182 143
M  V30 202 9 175 143
M  V30 203 9 168 143
M  V30 204 9 161 143
M  V30 205 1 186 196
M  V30 206 2 186 193
M  V30 207 1 187 186
M  V30 208 2 188 187
M  V30 209 1 188 190
M  V30 210 1 189 187
M  V30 211 2 190 192
M  V30 212 1 191 188
M  V30 213 1 192 193
M  V30 214 1 192 194
M  V30 215 1 193 195
M  V30 216 2 197 191
M  V30 217 1 198 191
M  V30 218 1 199 209
M  V30 219 2 199 206
M  V30 220 1 200 199
M  V30 221 2 201 200
M  V30 222 1 201 203
M  V30 223 1 202 200
M  V30 224 2 203 205
M  V30 225 1 204 201
M  V30 226 1 205 206
M  V30 227 1 205 207
M  V30 228 1 206 208
M  V30 229 2 210 204
M  V30 230 1 211 204
M  V30 231 1 212 210
M  V30 232 1 213 223
M  V30 233 2 213 220
M  V30 234 1 214 213
M  V30 235 2 215 214
M  V30 236 1 215 217
M  V30 237 1 216 214
M  V30 238 2 217 219
M  V30 239 1 218 215
M  V30 240 1 219 220
M  V30 241 1 219 221
M  V30 242 1 220 222
M  V30 243 2 224 218
M  V30 244 1 225 218
M  V30 245 1 226 224
M  V30 246 9 197 185
M  V30 247 9 190 185
M  V30 248 9 224 185
M  V30 249 9 217 185
M  V30 250 9 210 185
M  V30 251 9 203 185
M  V30 252 1 30 71
M  V30 253 1 11 155
M  V30 254 1 1 197
M  V30 255 1 22 113
M  V30 END BOND
M  V30 END CTAB
M  END

$$$$
