
     RDKit          3D

  0  0  0  0  0  0  0  0  0  0999 V3000
M  V30 BEGIN CTAB
M  V30 COUNTS 216 244 0 0 0
M  V30 BEGIN ATOM
M  V30 1 C -4.7800 3.1061 -0.2964 0
M  V30 2 C -3.7679 3.3183 -1.2389 0
M  V30 3 C -2.6687 2.4860 -1.2997 0
M  V30 4 C -2.5239 1.4049 -0.4271 0
M  V30 5 C -1.2638 0.6269 -0.4417 0
M  V30 6 C -0.0662 1.3410 -0.4309 0
M  V30 7 C 1.1942 0.7436 -0.4410 0
M  V30 8 C 2.3755 1.6300 -0.4885 0
M  V30 9 C 2.4427 2.7566 0.3333 0
M  V30 10 C 3.4842 3.6601 0.2335 0
M  V30 11 C 4.5136 3.4534 -0.6850 0
M  V30 12 C 4.4777 2.3042 -1.4772 0
M  V30 13 C 3.4200 1.4195 -1.3912 0
M  V30 14 C 1.2661 -0.6596 -0.4634 0
M  V30 15 C 2.5244 -1.4406 -0.4750 0
M  V30 16 C 2.6516 -2.5150 -1.3589 0
M  V30 17 C 3.7469 -3.3538 -1.3204 0
M  V30 18 C 4.7753 -3.1513 -0.3943 0
M  V30 19 C 4.6905 -2.0359 0.4407 0
M  V30 20 C 3.5823 -1.2054 0.4062 0
M  V30 21 C 0.0680 -1.3737 -0.4593 0
M  V30 22 C -1.1918 -0.7761 -0.4498 0
M  V30 23 C -2.3760 -1.6573 -0.5137 0
M  V30 24 C -2.4505 -2.7984 0.2868 0
M  V30 25 C -3.4994 -3.6916 0.1712 0
M  V30 26 C -4.5270 -3.4605 -0.7434 0
M  V30 27 C -4.4811 -2.2992 -1.5172 0
M  V30 28 C -3.4176 -1.4237 -1.4142 0
M  V30 29 C -3.5672 1.1577 0.4681 0
M  V30 30 C -4.6770 1.9845 0.5284 0
M  V30 31 H -3.8530 4.1329 -1.9425 0
M  V30 32 H -1.9080 2.6771 -2.0414 0
M  V30 33 H -0.1172 2.4201 -0.4250 0
M  V30 34 H 1.6681 2.9305 1.0650 0
M  V30 35 H 3.5130 4.5217 0.8843 0
M  V30 36 H 5.2615 2.1432 -2.2022 0
M  V30 37 H 3.3864 0.5693 -2.0552 0
M  V30 38 H 1.8793 -2.6970 -2.0908 0
M  V30 39 H 3.8162 -4.1669 -2.0277 0
M  V30 40 H 5.4749 -1.8643 1.1638 0
M  V30 41 H 3.5162 -0.3809 1.1013 0
M  V30 42 H 0.1180 -2.4527 -0.4748 0
M  V30 43 H -1.6766 -2.9915 1.0144 0
M  V30 44 H -3.5353 -4.5644 0.8066 0
M  V30 45 H -5.2624 -2.1207 -2.2408 0
M  V30 46 H -3.3768 -0.5623 -2.0632 0
M  V30 47 H -3.4872 0.3263 1.1536 0
M  V30 48 H -5.4492 1.8046 1.2625 0
M  V30 49 Zn 8.0389 -3.9293 -0.2949 0 CHG=2
M  V30 50 C 7.1756 -8.6757 -0.2789 0
M  V30 51 C 6.1885 -7.6997 -0.3115 0
M  V30 52 C 6.5594 -6.3549 -0.2864 0
M  V30 53 H 5.1465 -7.9758 -0.3585 0
M  V30 54 N 7.8474 -5.9758 -0.2276 0
M  V30 55 C 5.5564 -5.3099 -0.3232 0
M  V30 56 C 8.7854 -6.9119 -0.1887 0
M  V30 57 C 8.5009 -8.2729 -0.2134 0
M  V30 58 H 9.8083 -6.5682 -0.1307 0
M  V30 59 H 9.3016 -8.9948 -0.1816 0
M  V30 60 H 6.9175 -9.7234 -0.3025 0
M  V30 61 N 5.8421 -4.0616 -0.2915 0
M  V30 62 H 4.5215 -5.6516 -0.3641 0
M  V30 63 C 8.7475 -3.1465 4.5292 0
M  V30 64 C 8.7537 -2.1481 3.5628 0
M  V30 65 C 8.5051 -2.4920 2.2356 0
M  V30 66 H 8.9554 -1.1226 3.8327 0
M  V30 67 N 8.2586 -3.7562 1.8540 0
M  V30 68 C 8.5111 -1.4946 1.1778 0
M  V30 69 C 8.2552 -4.7018 2.7772 0
M  V30 70 C 8.4927 -4.4478 4.1278 0
M  V30 71 H 8.0621 -5.7097 2.4392 0
M  V30 72 H 8.4845 -5.2569 4.8410 0
M  V30 73 H 8.9425 -2.9141 5.5649 0
M  V30 74 N 8.2152 -1.8266 -0.0095 0
M  V30 75 H 8.7802 -0.4771 1.4712 0
M  V30 76 H 8.2608 -1.0949 -0.7108 0
M  V30 77 C 12.7811 -4.1355 -1.7122 0
M  V30 78 C 11.6921 -4.1221 -2.5757 0
M  V30 79 C 10.4084 -4.0368 -2.0407 0
M  V30 80 H 11.8360 -4.1797 -3.6439 0
M  V30 81 N 10.1796 -3.9684 -0.7169 0
M  V30 82 C 9.2352 -4.0171 -2.9014 0
M  V30 83 C 11.2223 -3.9880 0.0982 0
M  V30 84 C 12.5394 -4.0675 -0.3490 0
M  V30 85 H 11.0080 -3.9449 1.1573 0
M  V30 86 H 13.3522 -4.0842 0.3599 0
M  V30 87 H 13.7881 -4.2031 -2.0955 0
M  V30 88 N 8.0782 -3.8708 -2.3972 0
M  V30 89 H 9.4150 -4.1270 -3.9703 0
M  V30 90 H 7.3139 -3.8765 -3.0665 0
M  V30 91 Zn -8.0462 3.8657 -0.0552 0 CHG=2
M  V30 92 C -7.2134 8.6158 -0.2496 0
M  V30 93 C -6.2218 7.6443 -0.2762 0
M  V30 94 C -6.5838 6.2989 -0.1980 0
M  V30 95 H -5.1831 7.9240 -0.3600 0
M  V30 96 N -7.8674 5.9154 -0.0920 0
M  V30 97 C -5.5754 5.2597 -0.2353 0
M  V30 98 C -8.8095 6.8475 -0.0592 0
M  V30 99 C -8.5341 8.2084 -0.1368 0
M  V30 100 H -9.8285 6.5010 0.0377 0
M  V30 101 H -9.3382 8.9266 -0.1083 0
M  V30 102 H -6.9623 9.6635 -0.3139 0
M  V30 103 N -5.8498 4.0097 -0.1718 0
M  V30 104 H -4.5450 5.6083 -0.3124 0
M  V30 105 C -8.5617 3.3506 4.8305 0
M  V30 106 C -8.6157 2.3020 3.9203 0
M  V30 107 C -8.4161 2.5717 2.5678 0
M  V30 108 H -8.8162 1.2951 4.2532 0
M  V30 109 N -8.1719 3.8107 2.1086 0
M  V30 110 C -8.4762 1.5199 1.5670 0
M  V30 111 C -8.1228 4.8038 2.9791 0
M  V30 112 C -8.3099 4.6253 4.3495 0
M  V30 113 H -7.9332 5.7901 2.5809 0
M  V30 114 H -8.2660 5.4715 5.0169 0
M  V30 115 H -8.7181 3.1760 5.8840 0
M  V30 116 N -8.2250 1.7828 0.3517 0
M  V30 117 H -8.7445 0.5236 1.9252 0
M  V30 118 H -8.3114 1.0131 -0.3035 0
M  V30 119 C -12.8480 4.0310 -1.2806 0
M  V30 120 C -11.7962 3.9770 -2.1877 0
M  V30 121 C -10.4915 3.9050 -1.7038 0
M  V30 122 H -11.9846 3.9940 -3.2504 0
M  V30 123 N -10.2077 3.8877 -0.3891 0
M  V30 124 C -9.3556 3.8443 -2.6110 0
M  V30 125 C -11.2150 3.9452 0.4674 0
M  V30 126 C -12.5495 4.0148 0.0729 0
M  V30 127 H -10.9566 3.9426 1.5175 0
M  V30 128 H -13.3318 4.0638 0.8140 0
M  V30 129 H -13.8698 4.0900 -1.6237 0
M  V30 130 N -8.1794 3.7085 -2.1504 0
M  V30 131 H -9.5794 3.9155 -3.6749 0
M  V30 132 H -7.4432 3.6850 -2.8501 0
M  V30 133 Zn 7.7136 4.0303 -0.6071 0 CHG=2
M  V30 134 C 7.2645 8.7695 -1.5185 0
M  V30 135 C 6.1931 7.8996 -1.3613 0
M  V30 136 C 6.4436 6.5546 -1.0922 0
M  V30 137 H 5.1791 8.2566 -1.4530 0
M  V30 138 N 7.6942 6.0736 -0.9757 0
M  V30 139 C 5.3566 5.6044 -0.9470 0
M  V30 140 C 8.7124 6.9097 -1.1240 0
M  V30 141 C 8.5499 8.2639 -1.3964 0
M  V30 142 H 9.7027 6.4881 -1.0192 0
M  V30 143 H 9.4123 8.9019 -1.5086 0
M  V30 144 H 7.1001 9.8147 -1.7314 0
M  V30 145 N 5.5802 4.3533 -0.8196 0
M  V30 146 H 4.3447 6.0073 -0.9918 0
M  V30 147 C 7.1109 4.4959 4.2721 0
M  V30 148 C 6.7845 3.3562 3.5473 0
M  V30 149 C 7.0695 3.3193 2.1841 0
M  V30 150 H 6.3232 2.5091 4.0315 0
M  V30 151 N 7.6287 4.3556 1.5384 0
M  V30 152 C 6.7926 2.1398 1.3813 0
M  V30 153 C 7.9409 5.4360 2.2337 0
M  V30 154 C 7.7096 5.5517 3.6038 0
M  V30 155 H 8.4006 6.2478 1.6878 0
M  V30 156 H 7.9935 6.4511 4.1273 0
M  V30 157 H 6.9085 4.5540 5.3306 0
M  V30 158 N 7.1601 2.0932 0.1685 0
M  V30 159 H 6.2744 1.3211 1.8849 0
M  V30 160 H 6.9115 1.2490 -0.3373 0
M  V30 161 C 12.5322 3.4106 -1.2572 0
M  V30 162 C 11.5878 3.3803 -2.2768 0
M  V30 163 C 10.2411 3.5235 -1.9518 0
M  V30 164 H 11.8908 3.2543 -3.3051 0
M  V30 165 N 9.8178 3.6937 -0.6862 0
M  V30 166 C 9.2068 3.4992 -2.9775 0
M  V30 167 C 10.7234 3.7232 0.2789 0
M  V30 168 C 12.0892 3.5824 0.0450 0
M  V30 169 H 10.3523 3.8706 1.2835 0
M  V30 170 H 12.7863 3.6195 0.8673 0
M  V30 171 H 13.5841 3.3098 -1.4774 0
M  V30 172 N 7.9852 3.5538 -2.6365 0
M  V30 173 H 9.5428 3.4277 -4.0114 0
M  V30 174 H 7.3202 3.5523 -3.4050 0
M  V30 175 Zn -7.7290 -3.9955 -0.6556 0 CHG=2
M  V30 176 C -7.3531 -8.7297 -1.6271 0
M  V30 177 C -6.2686 -7.8755 -1.4736 0
M  V30 178 C -6.4982 -6.5318 -1.1806 0
M  V30 179 H -5.2607 -8.2434 -1.5866 0
M  V30 180 N -7.7408 -6.0371 -1.0376 0
M  V30 181 C -5.3974 -5.5977 -1.0346 0
M  V30 182 C -8.7714 -6.8586 -1.1817 0
M  V30 183 C -8.6300 -8.2104 -1.4766 0
M  V30 184 H -9.7547 -6.4269 -1.0545 0
M  V30 185 H -9.5019 -8.8363 -1.5840 0
M  V30 186 H -7.2051 -9.7735 -1.8584 0
M  V30 187 N -5.6041 -4.3458 -0.8880 0
M  V30 188 H -4.3912 -6.0127 -1.0935 0
M  V30 189 C -6.9772 -4.4845 4.1971 0
M  V30 190 C -6.6681 -3.3433 3.4673 0
M  V30 191 C -7.0028 -3.2957 2.1158 0
M  V30 192 H -6.1813 -2.5031 3.9386 0
M  V30 193 N -7.5943 -4.3236 1.4858 0
M  V30 194 C -6.7446 -2.1142 1.3092 0
M  V30 195 C -7.8906 -5.4053 2.1859 0
M  V30 196 C -7.6100 -5.5311 3.5459 0
M  V30 197 H -8.3773 -6.2095 1.6525 0
M  V30 198 H -7.8826 -6.4308 4.0747 0
M  V30 199 H -6.7358 -4.5509 5.2469 0
M  V30 200 N -7.1514 -2.0606 0.1094 0
M  V30 201 H -6.2045 -1.3008 1.7984 0
M  V30 202 H -6.9139 -1.2161 -0.4014 0
M  V30 203 C -12.5505 -3.3297 -1.2119 0
M  V30 204 C -11.6243 -3.2968 -2.2481 0
M  V30 205 C -10.2733 -3.4548 -1.9488 0
M  V30 206 H -11.9446 -3.1579 -3.2693 0
M  V30 207 N -9.8293 -3.6416 -0.6927 0
M  V30 208 C -9.2572 -3.4290 -2.9926 0
M  V30 209 C -10.7176 -3.6735 0.2882 0
M  V30 210 C -12.0860 -3.5188 0.0803 0
M  V30 211 H -10.3294 -3.8344 1.2844 0
M  V30 212 H -12.7687 -3.5588 0.9145 0
M  V30 213 H -13.6053 -3.2181 -1.4122 0
M  V30 214 N -8.0302 -3.5008 -2.6745 0
M  V30 215 H -9.6108 -3.3419 -4.0194 0
M  V30 216 H -7.3792 -3.4965 -3.4550 0
M  V30 END ATOM
M  V30 BEGIN BOND
M  V30 1 2 1 2
M  V30 2 1 2 3
M  V30 3 2 3 4
M  V30 4 1 4 5
M  V30 5 2 5 6
M  V30 6 1 6 7
M  V30 7 1 7 8
M  V30 8 2 8 9
M  V30 9 1 9 10
M  V30 10 2 10 11
M  V30 11 1 11 12
M  V30 12 2 12 13
M  V30 13 2 7 14
M  V30 14 1 14 15
M  V30 15 2 15 16
M  V30 16 1 16 17
M  V30 17 2 17 18
M  V30 18 1 18 19
M  V30 19 2 19 20
M  V30 20 1 14 21
M  V30 21 2 21 22
M  V30 22 1 22 23
M  V30 23 2 23 24
M  V30 24 1 24 25
M  V30 25 2 25 26
M  V30 26 1 26 27
M  V30 27 2 27 28
M  V30 28 1 4 29
M  V30 29 2 29 30
M  V30 30 1 30 1
M  V30 31 1 22 5
M  V30 32 1 28 23
M  V30 33 1 13 8
M  V30 34 1 20 15
M  V30 35 1 2 31
M  V30 36 1 3 32
M  V30 37 1 6 33
M  V30 38 1 9 34
M  V30 39 1 10 35
M  V30 40 1 12 36
M  V30 41 1 13 37
M  V30 42 1 16 38
M  V30 43 1 17 39
M  V30 44 1 19 40
M  V30 45 1 20 41
M  V30 46 1 21 42
M  V30 47 1 24 43
M  V30 48 1 25 44
M  V30 49 1 27 45
M  V30 50 1 28 46
M  V30 51 1 29 47
M  V30 52 1 30 48
M  V30 53 1 50 60
M  V30 54 2 50 57
M  V30 55 1 51 50
M  V30 56 2 52 51
M  V30 57 1 52 54
M  V30 58 1 53 51
M  V30 59 2 54 56
M  V30 60 1 55 52
M  V30 61 1 56 57
M  V30 62 1 56 58
M  V30 63 1 57 59
M  V30 64 2 61 55
M  V30 65 1 62 55
M  V30 66 1 63 73
M  V30 67 2 63 70
M  V30 68 1 64 63
M  V30 69 2 65 64
M  V30 70 1 65 67
M  V30 71 1 66 64
M  V30 72 2 67 69
M  V30 73 1 68 65
M  V30 74 1 69 70
M  V30 75 1 69 71
M  V30 76 1 70 72
M  V30 77 2 74 68
M  V30 78 1 75 68
M  V30 79 1 76 74
M  V30 80 1 77 87
M  V30 81 2 77 84
M  V30 82 1 78 77
M  V30 83 2 79 78
M  V30 84 1 79 81
M  V30 85 1 80 78
M  V30 86 2 81 83
M  V30 87 1 82 79
M  V30 88 1 83 84
M  V30 89 1 83 85
M  V30 90 1 84 86
M  V30 91 2 88 82
M  V30 92 1 89 82
M  V30 93 1 90 88
M  V30 94 9 61 49
M  V30 95 9 54 49
M  V30 96 9 74 49
M  V30 97 9 67 49
M  V30 98 9 88 49
M  V30 99 9 81 49
M  V30 100 1 92 102
M  V30 101 2 92 99
M  V30 102 1 93 92
M  V30 103 2 94 93
M  V30 104 1 94 96
M  V30 105 1 95 93
M  V30 106 2 96 98
M  V30 107 1 97 94
M  V30 108 1 98 99
M  V30 109 1 98 100
M  V30 110 1 99 101
M  V30 111 2 103 97
M  V30 112 1 104 97
M  V30 113 1 105 115
M  V30 114 2 105 112
M  V30 115 1 106 105
M  V30 116 2 107 106
M  V30 117 1 107 109
M  V30 118 1 108 106
M  V30 119 2 109 111
M  V30 120 1 110 107
M  V30 121 1 111 112
M  V30 122 1 111 113
M  V30 123 1 112 114
M  V30 124 2 116 110
M  V30 125 1 117 110
M  V30 126 1 118 116
M  V30 127 1 119 129
M  V30 128 2 119 126
M  V30 129 1 120 119
M  V30 130 2 121 120
M  V30 131 1 121 123
M  V30 132 1 122 120
M  V30 133 2 123 125
M  V30 134 1 124 121
M  V30 135 1 125 126
M  V30 136 1 125 127
M  V30 137 1 126 128
M  V30 138 2 130 124
M  V30 139 1 131 124
M  V30 140 1 132 130
M  V30 141 9 103 91
M  V30 142 9 96 91
M  V30 143 9 116 91
M  V30 144 9 109 91
M  V30 145 9 130 91
M  V30 146 9 123 91
M  V30 147 1 134 144
M  V30 148 2 134 141
M  V30 149 1 135 134
M  V30 150 2 136 135
M  V30 151 1 136 138
M  V30 152 1 137 135
M  V30 153 2 138 140
M  V30 154 1 139 136
M  V30 155 1 140 141
M  V30 156 1 140 142
M  V30 157 1 141 143
M  V30 158 2 145 139
M  V30 159 1 146 139
M  V30 160 1 147 157
M  V30 161 2 147 154
M  V30 162 1 148 147
M  V30 163 2 149 148
M  V30 164 1 149 151
M  V30 165 1 150 148
M  V30 166 2 151 153
M  V30 167 1 152 149
M  V30 168 1 153 154
M  V30 169 1 153 155
M  V30 170 1 154 156
M  V30 171 2 158 152
M  V30 172 1 159 152
M  V30 173 1 160 158
M  V30 174 1 161 171
M  V30 175 2 161 168
M  V30 176 1 162 161
M  V30 177 2 163 162
M  V30 178 1 163 165
M  V30 179 1 164 162
M  V30 180 2 165 167
M  V30 181 1 166 163
M  V30 182 1 167 168
M  V30 183 1 167 169
M  V30 184 1 168 170
M  V30 185 2 172 166
M  V30 186 1 173 166
M  V30 187 1 174 172
M  V30 188 9 145 133
M  V30 189 9 138 133
M  V30 190 9 172 133
M  V30 191 9 165 133
M  V30 192 9 158 133
M  V30 193 9 151 133
M  V30 194 1 176 186
M  V30 195 2 176 183
M  V30 196 1 177 176
M  V30 197 2 178 177
M  V30 198 1 178 180
M  V30 199 1 179 177
M  V30 200 2 180 182
M  V30 201 1 181 178
M  V30 202 1 182 183
M  V30 203 1 182 184
M  V30 204 1 183 185
M  V30 205 2 187 181
M  V30 206 1 188 181
M  V30 207 1 189 199
M  V30 208 2 189 196
M  V30 209 1 190 189
M  V30 210 2 191 190
M  V30 211 1 191 193
M  V30 212 1 192 190
M  V30 213 2 193 195
M  V30 214 1 194 191
M  V30 215 1 195 196
M  V30 216 1 195 197
M  V30 217 1 196 198
M  V30 218 2 200 194
M  V30 219 1 201 194
M  V30 220 1 202 200
M  V30 221 1 203 213
M  V30 222 2 203 210
M  V30 223 1 204 203
M  V30 224 2 205 204
M  V30 225 1 205 207
M  V30 226 1 206 204
M  V30 227 2 207 209
M  V30 228 1 208 205
M  V30 229 1 209 210
M  V30 230 1 209 211
M  V30 231 1 210 212
M  V30 232 2 214 208
M  V30 233 1 215 208
M  V30 234 1 216 214
M  V30 235 9 187 175
M  V30 236 9 180 175
M  V30 237 9 214 175
M  V30 238 9 207 175
M  V30 239 9 200 175
M  V30 240 9 193 175
M  V30 241 1 11 145
M  V30 242 1 18 61
M  V30 243 1 26 187
M  V30 244 1 1 103
M  V30 END BOND
M  V30 END CTAB
M  END

$$$$
