
     RDKit          3D

  0  0  0  0  0  0  0  0  0  0999 V3000
M  V30 BEGIN CTAB
M  V30 COUNTS 230 259 0 0 0
M  V30 BEGIN ATOM
M  V30 1 C -7.1221 3.5719 0.1367 0
M  V30 2 C -7.6061 2.5088 -0.6340 0
M  V30 3 C -6.8965 1.3357 -0.7539 0
M  V30 4 C -5.6733 1.1531 -0.0907 0
M  V30 5 N -4.9875 -0.0596 -0.2063 0
M  V30 6 C -5.7450 -1.2341 -0.2451 0
M  V30 7 C -5.4082 -2.3150 -1.0679 0
M  V30 8 C -6.1888 -3.4509 -1.1019 0
M  V30 9 C -7.3474 -3.5672 -0.3184 0
M  V30 10 C -7.6870 -2.4820 0.4960 0
M  V30 11 C -6.9026 -1.3512 0.5391 0
M  V30 12 C -3.5751 -0.0918 -0.2804 0
M  V30 13 C -2.8604 0.9573 -0.8619 0
M  V30 14 C -1.4793 0.9334 -0.9184 0
M  V30 15 C -0.7370 -0.1399 -0.4157 0
M  V30 16 C 0.7399 -0.1547 -0.4809 0
M  V30 17 C 1.4318 0.4836 -1.5156 0
M  V30 18 C 2.8137 0.4944 -1.5701 0
M  V30 19 C 3.5719 -0.1473 -0.5912 0
M  V30 20 N 4.9921 -0.1244 -0.6394 0
M  V30 21 C 5.6605 1.0655 -0.9261 0
M  V30 22 C 6.8578 1.0569 -1.6584 0
M  V30 23 C 7.5555 2.2182 -1.8984 0
M  V30 24 C 7.0876 3.4544 -1.4378 0
M  V30 25 C 5.8750 3.4673 -0.7329 0
M  V30 26 C 5.1786 2.3036 -0.4845 0
M  V30 27 C 5.7303 -1.2808 -0.3977 0
M  V30 28 C 6.9843 -1.2158 0.2299 0
M  V30 29 C 7.7467 -2.3448 0.4257 0
M  V30 30 C 7.2950 -3.6067 0.0236 0
M  V30 31 C 6.0315 -3.6734 -0.5864 0
M  V30 32 C 5.2683 -2.5440 -0.7876 0
M  V30 33 C 2.8957 -0.8022 0.4374 0
M  V30 34 C 1.5131 -0.7990 0.4903 0
M  V30 35 C -1.4637 -1.1902 0.1531 0
M  V30 36 C -2.8448 -1.1678 0.2274 0
M  V30 37 C -5.1937 2.2113 0.6901 0
M  V30 38 C -5.8987 3.3916 0.7980 0
M  V30 39 H -8.5242 2.6438 -1.1853 0
M  V30 40 H -7.2739 0.5470 -1.3875 0
M  V30 41 H -4.5370 -2.2486 -1.7015 0
M  V30 42 H -5.9241 -4.2406 -1.7887 0
M  V30 43 H -8.5528 -2.5615 1.1350 0
M  V30 44 H -7.1704 -0.5426 1.2035 0
M  V30 45 H -3.3907 1.7990 -1.2819 0
M  V30 46 H -0.9714 1.7790 -1.3558 0
M  V30 47 H 0.8838 0.9615 -2.3128 0
M  V30 48 H 3.3117 0.9934 -2.3884 0
M  V30 49 H 7.2251 0.1226 -2.0560 0
M  V30 50 H 8.4538 2.1949 -2.4963 0
M  V30 51 H 5.4991 4.3945 -0.3275 0
M  V30 52 H 4.2595 2.3425 0.0800 0
M  V30 53 H 7.3484 -0.2607 0.5793 0
M  V30 54 H 8.6953 -2.2721 0.9343 0
M  V30 55 H 5.6629 -4.6157 -0.9620 0
M  V30 56 H 4.3118 -2.6281 -1.2803 0
M  V30 57 H 3.4586 -1.3023 1.2121 0
M  V30 58 H 1.0312 -1.2856 1.3242 0
M  V30 59 H -0.9453 -2.0539 0.5403 0
M  V30 60 H -3.3615 -1.9935 0.6939 0
M  V30 61 H -4.2660 2.0943 1.2291 0
M  V30 62 H -5.5195 4.1682 1.4450 0
M  V30 63 Zn 10.2779 -5.0109 0.1701 0 CHG=2
M  V30 64 C 8.5390 -9.4495 0.9054 0
M  V30 65 C 7.7520 -8.3188 0.7491 0
M  V30 66 C 8.3674 -7.0776 0.5719 0
M  V30 67 H 6.6758 -8.3929 0.7595 0
M  V30 68 N 9.7052 -6.9505 0.5503 0
M  V30 69 C 7.5773 -5.8767 0.4118 0
M  V30 70 C 10.4526 -8.0338 0.7120 0
M  V30 71 C 9.9188 -9.3033 0.8921 0
M  V30 72 H 11.5230 -7.8860 0.7026 0
M  V30 73 H 10.5704 -10.1529 1.0184 0
M  V30 74 H 8.0891 -10.4212 1.0371 0
M  V30 75 N 8.1072 -4.7199 0.2286 0
M  V30 76 H 6.4985 -6.0092 0.4760 0
M  V30 77 C 11.4443 -3.7288 4.7902 0
M  V30 78 C 11.6940 -2.9418 3.6732 0
M  V30 79 C 11.2859 -3.3995 2.4226 0
M  V30 80 H 12.1988 -1.9928 3.7701 0
M  V30 81 N 10.6619 -4.5766 2.2550 0
M  V30 82 C 11.5147 -2.6194 1.2156 0
M  V30 83 C 10.4318 -5.3235 3.3207 0
M  V30 84 C 10.8011 -4.9425 4.6093 0
M  V30 85 H 9.9374 -6.2694 3.1518 0
M  V30 86 H 10.5929 -5.5901 5.4460 0
M  V30 87 H 11.7493 -3.4035 5.7730 0
M  V30 88 N 11.0363 -3.0144 0.1104 0
M  V30 89 H 12.0977 -1.7046 1.3326 0
M  V30 90 H 11.2357 -2.4384 -0.7005 0
M  V30 91 C 14.8738 -6.1723 -1.3287 0
M  V30 92 C 13.7681 -6.0665 -2.1635 0
M  V30 93 C 12.5304 -5.7534 -1.6056 0
M  V30 94 H 13.8643 -6.2214 -3.2271 0
M  V30 95 N 12.3625 -5.5535 -0.2875 0
M  V30 96 C 11.3422 -5.6212 -2.4364 0
M  V30 97 C 13.4180 -5.6687 0.5016 0
M  V30 98 C 14.6931 -5.9725 0.0308 0
M  V30 99 H 13.2483 -5.5184 1.5591 0
M  V30 100 H 15.5197 -6.0544 0.7186 0
M  V30 101 H 15.8472 -6.4089 -1.7304 0
M  V30 102 N 10.2460 -5.2379 -1.9236 0
M  V30 103 H 11.4605 -5.8615 -3.4927 0
M  V30 104 H 9.4625 -5.1802 -2.5676 0
M  V30 105 Zn -10.0196 5.0810 0.3265 0 CHG=2
M  V30 106 C -8.1209 9.5237 0.3948 0
M  V30 107 C -7.3716 8.3577 0.3511 0
M  V30 108 C -8.0276 7.1253 0.3403 0
M  V30 109 H -6.2939 8.3978 0.3233 0
M  V30 110 N -9.3687 7.0397 0.3698 0
M  V30 111 C -7.2820 5.8861 0.2783 0
M  V30 112 C -10.0799 8.1581 0.4110 0
M  V30 113 C -9.5044 9.4222 0.4264 0
M  V30 114 H -11.1546 8.0445 0.4381 0
M  V30 115 H -10.1270 10.3017 0.4626 0
M  V30 116 H -7.6391 10.4891 0.4039 0
M  V30 117 N -7.8675 4.7462 0.2065 0
M  V30 118 H -6.1970 5.9783 0.2538 0
M  V30 119 C -10.0010 4.4160 5.2305 0
M  V30 120 C -10.2005 3.4037 4.3008 0
M  V30 121 C -10.2121 3.7256 2.9458 0
M  V30 122 H -10.3505 2.3843 4.6211 0
M  V30 123 N -10.0246 4.9780 2.5021 0
M  V30 124 C -10.4604 2.7157 1.9292 0
M  V30 125 C -9.8429 5.9384 3.3918 0
M  V30 126 C -9.8265 5.7094 4.7662 0
M  V30 127 H -9.7127 6.9390 3.0052 0
M  V30 128 H -9.6846 6.5307 5.4505 0
M  V30 129 H -9.9911 4.2003 6.2877 0
M  V30 130 N -10.4545 3.0321 0.7031 0
M  V30 131 H -10.6590 1.7059 2.2923 0
M  V30 132 H -10.6592 2.2864 0.0463 0
M  V30 133 C -14.7723 6.0398 -0.5616 0
M  V30 134 C -13.8037 5.8635 -1.5425 0
M  V30 135 C -12.4937 5.5937 -1.1540 0
M  V30 136 H -14.0597 5.9330 -2.5886 0
M  V30 137 N -12.1267 5.5026 0.1363 0
M  V30 138 C -11.4407 5.3927 -2.1393 0
M  V30 139 C -13.0535 5.6792 1.0640 0
M  V30 140 C -14.3878 5.9460 0.7665 0
M  V30 141 H -12.7257 5.6114 2.0922 0
M  V30 142 H -15.1033 6.0824 1.5618 0
M  V30 143 H -15.7965 6.2487 -0.8302 0
M  V30 144 N -10.2771 5.0555 -1.7601 0
M  V30 145 H -11.7154 5.5402 -3.1834 0
M  V30 146 H -9.5922 4.9472 -2.5029 0
M  V30 147 Zn 10.0007 4.9063 -1.7476 0 CHG=2
M  V30 148 C 8.1520 9.2794 -2.6448 0
M  V30 149 C 7.3893 8.1476 -2.4000 0
M  V30 150 C 8.0314 6.9353 -2.1395 0
M  V30 151 H 6.3118 8.1982 -2.4118 0
M  V30 152 N 9.3718 6.8366 -2.1218 0
M  V30 153 C 7.2708 5.7300 -1.8866 0
M  V30 154 C 10.0958 7.9224 -2.3574 0
M  V30 155 C 9.5348 9.1651 -2.6218 0
M  V30 156 H 11.1696 7.8004 -2.3293 0
M  V30 157 H 10.1677 10.0187 -2.8043 0
M  V30 158 H 7.6812 10.2286 -2.8488 0
M  V30 159 N 7.8415 4.5966 -1.6923 0
M  V30 160 H 6.1869 5.8337 -1.9050 0
M  V30 161 C 10.2233 5.3372 3.1775 0
M  V30 162 C 10.3872 4.1444 2.4855 0
M  V30 163 C 10.3320 4.1594 1.0940 0
M  V30 164 H 10.5613 3.2204 3.0149 0
M  V30 165 N 10.1119 5.2832 0.3948 0
M  V30 166 C 10.5446 2.9503 0.3143 0
M  V30 167 C 9.9641 6.4166 1.0582 0
M  V30 168 C 10.0158 6.4967 2.4484 0
M  V30 169 H 9.8065 7.3072 0.4670 0
M  V30 170 H 9.9005 7.4490 2.9409 0
M  V30 171 H 10.2658 5.3602 4.2555 0
M  V30 172 N 10.4752 2.9884 -0.9493 0
M  V30 173 H 10.7755 2.0463 0.8806 0
M  V30 174 H 10.6616 2.1175 -1.4353 0
M  V30 175 C 14.7052 5.5767 -3.0620 0
M  V30 176 C 13.6877 5.1944 -3.9279 0
M  V30 177 C 12.3988 5.0371 -3.4241 0
M  V30 178 H 13.8902 5.0208 -4.9736 0
M  V30 179 N 12.0982 5.2469 -2.1306 0
M  V30 180 C 11.2969 4.6297 -4.2846 0
M  V30 181 C 13.0712 5.6177 -1.3143 0
M  V30 182 C 14.3890 5.7924 -1.7301 0
M  V30 183 H 12.7959 5.7899 -0.2829 0
M  V30 184 H 15.1444 6.0967 -1.0230 0
M  V30 185 H 15.7148 5.7056 -3.4212 0
M  V30 186 N 10.1536 4.4029 -3.7820 0
M  V30 187 H 11.5188 4.5311 -5.3468 0
M  V30 188 H 9.4322 4.1353 -4.4458 0
M  V30 189 Zn -10.3260 -4.9829 -0.3064 0 CHG=2
M  V30 190 C -8.5843 -9.4627 -0.7066 0
M  V30 191 C -7.8001 -8.3192 -0.6832 0
M  V30 192 C -8.4132 -7.0748 -0.5243 0
M  V30 193 H -6.7286 -8.3856 -0.7889 0
M  V30 194 N -9.7455 -6.9559 -0.3927 0
M  V30 195 C -7.6268 -5.8612 -0.4788 0
M  V30 196 C -10.4891 -8.0536 -0.4054 0
M  V30 197 C -9.9573 -9.3276 -0.5591 0
M  V30 198 H -11.5540 -7.9152 -0.2835 0
M  V30 199 H -10.6054 -10.1893 -0.5631 0
M  V30 200 H -8.1367 -10.4361 -0.8339 0
M  V30 201 N -8.1578 -4.7020 -0.3229 0
M  V30 202 H -6.5478 -5.9902 -0.5547 0
M  V30 203 C -11.1857 -4.6706 4.5400 0
M  V30 204 C -11.4565 -3.6573 3.6293 0
M  V30 205 C -11.1377 -3.8546 2.2879 0
M  V30 206 H -11.9107 -2.7333 3.9530 0
M  V30 207 N -10.5797 -4.9911 1.8407 0
M  V30 208 C -11.3945 -2.8303 1.2862 0
M  V30 209 C -10.3290 -5.9538 2.7106 0
M  V30 210 C -10.6111 -5.8407 4.0708 0
M  V30 211 H -9.8891 -6.8592 2.3174 0
M  V30 212 H -10.3896 -6.6569 4.7398 0
M  V30 213 H -11.4227 -4.5496 5.5859 0
M  V30 214 N -11.0043 -3.0029 0.0932 0
M  V30 215 H -11.9206 -1.9378 1.6297 0
M  V30 216 H -11.2189 -2.2614 -0.5652 0
M  V30 217 C -15.0201 -5.7849 -1.7101 0
M  V30 218 C -13.9675 -5.5118 -2.5750 0
M  V30 219 C -12.6920 -5.3260 -2.0464 0
M  V30 220 H -14.1330 -5.4419 -3.6391 0
M  V30 221 N -12.4376 -5.4048 -0.7291 0
M  V30 222 C -11.5570 -5.0287 -2.9083 0
M  V30 223 C -13.4434 -5.6777 0.0860 0
M  V30 224 C -14.7505 -5.8725 -0.3535 0
M  V30 225 H -13.2054 -5.7509 1.1385 0
M  V30 226 H -15.5335 -6.0926 0.3548 0
M  V30 227 H -16.0208 -5.9293 -2.0878 0
M  V30 228 N -10.4231 -4.7682 -2.4004 0
M  V30 229 H -11.7470 -5.0408 -3.9812 0
M  V30 230 H -9.6820 -4.5798 -3.0693 0
M  V30 END ATOM
M  V30 BEGIN BOND
M  V30 1 2 1 2
M  V30 2 1 2 3
M  V30 3 2 3 4
M  V30 4 1 4 5
M  V30 5 1 5 6
M  V30 6 2 6 7
M  V30 7 1 7 8
M  V30 8 2 8 9
M  V30 9 1 9 10
M  V30 10 2 10 11
M  V30 11 1 5 12
M  V30 12 2 12 13
M  V30 13 1 13 14
M  V30 14 2 14 15
M  V30 15 1 15 16
M  V30 16 2 16 17
M  V30 17 1 17 18
M  V30 18 2 18 19
M  V30 19 1 19 20
M  V30 20 1 20 21
M  V30 21 2 21 22
M  V30 22 1 22 23
M  V30 23 2 23 24
M  V30 24 1 24 25
M  V30 25 2 25 26
M  V30 26 1 20 27
M  V30 27 2 27 28
M  V30 28 1 28 29
M  V30 29 2 29 30
M  V30 30 1 30 31
M  V30 31 2 31 32
M  V30 32 1 19 33
M  V30 33 2 33 34
M  V30 34 1 15 35
M  V30 35 2 35 36
M  V30 36 1 4 37
M  V30 37 2 37 38
M  V30 38 1 38 1
M  V30 39 1 11 6
M  V30 40 1 36 12
M  V30 41 1 34 16
M  V30 42 1 26 21
M  V30 43 1 32 27
M  V30 44 1 2 39
M  V30 45 1 3 40
M  V30 46 1 7 41
M  V30 47 1 8 42
M  V30 48 1 10 43
M  V30 49 1 11 44
M  V30 50 1 13 45
M  V30 51 1 14 46
M  V30 52 1 17 47
M  V30 53 1 18 48
M  V30 54 1 22 49
M  V30 55 1 23 50
M  V30 56 1 25 51
M  V30 57 1 26 52
M  V30 58 1 28 53
M  V30 59 1 29 54
M  V30 60 1 31 55
M  V30 61 1 32 56
M  V30 62 1 33 57
M  V30 63 1 34 58
M  V30 64 1 35 59
M  V30 65 1 36 60
M  V30 66 1 37 61
M  V30 67 1 38 62
M  V30 68 1 64 74
M  V30 69 2 64 71
M  V30 70 1 65 64
M  V30 71 2 66 65
M  V30 72 1 66 68
M  V30 73 1 67 65
M  V30 74 2 68 70
M  V30 75 1 69 66
M  V30 76 1 70 71
M  V30 77 1 70 72
M  V30 78 1 71 73
M  V30 79 2 75 69
M  V30 80 1 76 69
M  V30 81 1 77 87
M  V30 82 2 77 84
M  V30 83 1 78 77
M  V30 84 2 79 78
M  V30 85 1 79 81
M  V30 86 1 80 78
M  V30 87 2 81 83
M  V30 88 1 82 79
M  V30 89 1 83 84
M  V30 90 1 83 85
M  V30 91 1 84 86
M  V30 92 2 88 82
M  V30 93 1 89 82
M  V30 94 1 90 88
M  V30 95 1 91 101
M  V30 96 2 91 98
M  V30 97 1 92 91
M  V30 98 2 93 92
M  V30 99 1 93 95
M  V30 100 1 94 92
M  V30 101 2 95 97
M  V30 102 1 96 93
M  V30 103 1 97 98
M  V30 104 1 97 99
M  V30 105 1 98 100
M  V30 106 2 102 96
M  V30 107 1 103 96
M  V30 108 1 104 102
M  V30 109 9 75 63
M  V30 110 9 68 63
M  V30 111 9 88 63
M  V30 112 9 81 63
M  V30 113 9 102 63
M  V30 114 9 95 63
M  V30 115 1 106 116
M  V30 116 2 106 113
M  V30 117 1 107 106
M  V30 118 2 108 107
M  V30 119 1 108 110
M  V30 120 1 109 107
M  V30 121 2 110 112
M  V30 122 1 111 108
M  V30 123 1 112 113
M  V30 124 1 112 114
M  V30 125 1 113 115
M  V30 126 2 117 111
M  V30 127 1 118 111
M  V30 128 1 119 129
M  V30 129 2 119 126
M  V30 130 1 120 119
M  V30 131 2 121 120
M  V30 132 1 121 123
M  V30 133 1 122 120
M  V30 134 2 123 125
M  V30 135 1 124 121
M  V30 136 1 125 126
M  V30 137 1 125 127
M  V30 138 1 126 128
M  V30 139 2 130 124
M  V30 140 1 131 124
M  V30 141 1 132 130
M  V30 142 1 133 143
M  V30 143 2 133 140
M  V30 144 1 134 133
M  V30 145 2 135 134
M  V30 146 1 135 137
M  V30 147 1 136 134
M  V30 148 2 137 139
M  V30 149 1 138 135
M  V30 150 1 139 140
M  V30 151 1 139 141
M  V30 152 1 140 142
M  V30 153 2 144 138
M  V30 154 1 145 138
M  V30 155 1 146 144
M  V30 156 9 117 105
M  V30 157 9 110 105
M  V30 158 9 130 105
M  V30 159 9 123 105
M  V30 160 9 144 105
M  V30 161 9 137 105
M  V30 162 1 148 158
M  V30 163 2 148 155
M  V30 164 1 149 148
M  V30 165 2 150 149
M  V30 166 1 150 152
M  V30 167 1 151 149
M  V30 168 2 152 154
M  V30 169 1 153 150
M  V30 170 1 154 155
M  V30 171 1 154 156
M  V30 172 1 155 157
M  V30 173 2 159 153
M  V30 174 1 160 153
M  V30 175 1 161 171
M  V30 176 2 161 168
M  V30 177 1 162 161
M  V30 178 2 163 162
M  V30 179 1 163 165
M  V30 180 1 164 162
M  V30 181 2 165 167
M  V30 182 1 166 163
M  V30 183 1 167 168
M  V30 184 1 167 169
M  V30 185 1 168 170
M  V30 186 2 172 166
M  V30 187 1 173 166
M  V30 188 1 174 172
M  V30 189 1 175 185
M  V30 190 2 175 182
M  V30 191 1 176 175
M  V30 192 2 177 176
M  V30 193 1 177 179
M  V30 194 1 178 176
M  V30 195 2 179 181
M  V30 196 1 180 177
M  V30 197 1 181 182
M  V30 198 1 181 183
M  V30 199 1 182 184
M  V30 200 2 186 180
M  V30 201 1 187 180
M  V30 202 1 188 186
M  V30 203 9 159 147
M  V30 204 9 152 147
M  V30 205 9 186 147
M  V30 206 9 179 147
M  V30 207 9 172 147
M  V30 208 9 165 147
M  V30 209 1 190 200
M  V30 210 2 190 197
M  V30 211 1 191 190
M  V30 212 2 192 191
M  V30 213 1 192 194
M  V30 214 1 193 191
M  V30 215 2 194 196
M  V30 216 1 195 192
M  V30 217 1 196 197
M  V30 218 1 196 198
M  V30 219 1 197 199
M  V30 220 2 201 195
M  V30 221 1 202 195
M  V30 222 1 203 213
M  V30 223 2 203 210
M  V30 224 1 204 203
M  V30 225 2 205 204
M  V30 226 1 205 207
M  V30 227 1 206 204
M  V30 228 2 207 209
M  V30 229 1 208 205
M  V30 230 1 209 210
M  V30 231 1 209 211
M  V30 232 1 210 212
M  V30 233 2 214 208
M  V30 234 1 215 208
M  V30 235 1 216 214
M  V30 236 1 217 227
M  V30 237 2 217 224
M  V30 238 1 218 217
M  V30 239 2 219 218
M  V30 240 1 219 221
M  V30 241 1 220 218
M  V30 242 2 221 223
M  V30 243 1 222 219
M  V30 244 1 223 224
M  V30 245 1 223 225
M  V30 246 1 224 226
M  V30 247 2 228 222
M  V30 248 1 229 222
M  V30 249 1 230 228
M  V30 250 9 201 189
M  V30 251 9 194 189
M  V30 252 9 228 189
M  V30 253 9 221 189
M  V30 254 9 214 189
M  V30 255 9 207 189
M  V30 256 1 24 159
M  V30 257 1 30 75
M  V30 258 1 9 201
M  V30 259 1 1 117
M  V30 END BOND
M  V30 END CTAB
M  END

$$$$
