
     RDKit          3D

  0  0  0  0  0  0  0  0  0  0999 V3000
M  V30 BEGIN CTAB
M  V30 COUNTS 216 244 0 0 0
M  V30 BEGIN ATOM
M  V30 1 C -4.3220 3.9390 -0.4246 0
M  V30 2 C -3.2880 4.0537 -1.3606 0
M  V30 3 C -2.2191 3.1800 -1.3504 0
M  V30 4 C -2.1312 2.1482 -0.4133 0
M  V30 5 C -0.9124 1.3070 -0.3656 0
M  V30 6 C 0.3252 1.9538 -0.3609 0
M  V30 7 C 1.5493 1.2876 -0.3060 0
M  V30 8 C 2.7973 2.0811 -0.3733 0
M  V30 9 C 2.9686 3.2143 0.4234 0
M  V30 10 C 4.0965 4.0078 0.3165 0
M  V30 11 C 5.1056 3.6941 -0.5975 0
M  V30 12 C 4.9545 2.5422 -1.3730 0
M  V30 13 C 3.8208 1.7587 -1.2679 0
M  V30 14 C 1.5350 -0.1171 -0.2475 0
M  V30 15 C 2.7518 -0.9507 -0.1367 0
M  V30 16 C 2.9004 -2.0965 -0.9242 0
M  V30 17 C 3.9896 -2.9332 -0.7826 0
M  V30 18 C 4.9935 -2.6493 0.1463 0
M  V30 19 C 4.8482 -1.5046 0.9389 0
M  V30 20 C 3.7487 -0.6778 0.8017 0
M  V30 21 C 0.3009 -0.7626 -0.2550 0
M  V30 22 C -0.9245 -0.0973 -0.3108 0
M  V30 23 C -2.1398 -0.9368 -0.3750 0
M  V30 24 C -2.2427 -2.0714 0.4345 0
M  V30 25 C -3.2722 -2.9792 0.2791 0
M  V30 26 C -4.2642 -2.7697 -0.6805 0
M  V30 27 C -4.2186 -1.5926 -1.4301 0
M  V30 28 C -3.1670 -0.7048 -1.2922 0
M  V30 29 C -3.1940 1.9999 0.4807 0
M  V30 30 C -4.2708 2.8714 0.4732 0
M  V30 31 H -3.3316 4.8242 -2.1159 0
M  V30 32 H -1.4394 3.2984 -2.0877 0
M  V30 33 H 0.3361 3.0333 -0.4072 0
M  V30 34 H 2.2109 3.4777 1.1463 0
M  V30 35 H 4.2054 4.8661 0.9628 0
M  V30 36 H 5.7150 2.2990 -2.0998 0
M  V30 37 H 3.7112 0.9002 -1.9137 0
M  V30 38 H 2.1559 -2.3241 -1.6725 0
M  V30 39 H 4.0950 -3.8025 -1.4134 0
M  V30 40 H 5.5750 -1.2939 1.7104 0
M  V30 41 H 3.6482 0.1809 1.4485 0
M  V30 42 H 0.2938 -1.8425 -0.2220 0
M  V30 43 H -1.4992 -2.2506 1.1966 0
M  V30 44 H -3.3207 -3.8514 0.9149 0
M  V30 45 H -4.9822 -1.4145 -2.1724 0
M  V30 46 H -3.1220 0.1625 -1.9332 0
M  V30 47 H -3.1575 1.2113 1.2182 0
M  V30 48 H -5.0569 2.7659 1.2065 0
M  V30 49 Zn -7.5688 4.8242 -0.2704 0 CHG=2
M  V30 50 C -6.5751 9.5127 -0.8069 0
M  V30 51 C -5.6165 8.5097 -0.7551 0
M  V30 52 C -6.0236 7.1867 -0.5789 0
M  V30 53 H -4.5687 8.7478 -0.8530 0
M  V30 54 N -7.3198 6.8549 -0.4550 0
M  V30 55 C -5.0490 6.1159 -0.5281 0
M  V30 56 C -8.2305 7.8174 -0.4969 0
M  V30 57 C -7.9092 9.1590 -0.6718 0
M  V30 58 H -9.2609 7.5122 -0.3815 0
M  V30 59 H -8.6886 9.9041 -0.6996 0
M  V30 60 H -6.2886 10.5437 -0.9472 0
M  V30 61 N -5.3638 4.8827 -0.3799 0
M  V30 62 H -4.0072 6.4262 -0.6152 0
M  V30 63 C -8.1927 4.6923 4.6251 0
M  V30 64 C -8.2573 3.5803 3.7943 0
M  V30 65 C -8.0255 3.7434 2.4300 0
M  V30 66 H -8.4893 2.6065 4.1976 0
M  V30 67 N -7.7403 4.9382 1.8849 0
M  V30 68 C -8.0939 2.6221 1.5089 0
M  V30 69 C -7.6831 5.9922 2.6800 0
M  V30 70 C -7.9003 5.9210 4.0558 0
M  V30 71 H -7.4615 6.9413 2.2137 0
M  V30 72 H -7.8473 6.8135 4.6591 0
M  V30 73 H -8.3717 4.6003 5.6855 0
M  V30 74 N -7.8127 2.7876 0.2831 0
M  V30 75 H -8.3965 1.6636 1.9356 0
M  V30 76 H -7.9022 1.9746 -0.3165 0
M  V30 77 C -12.3574 4.9718 -1.5734 0
M  V30 78 C -11.2951 4.8453 -2.4606 0
M  V30 79 C -9.9972 4.7978 -1.9559 0
M  V30 80 H -11.4702 4.7866 -3.5241 0
M  V30 81 N -9.7293 4.8739 -0.6401 0
M  V30 82 C -8.8512 4.6580 -2.8414 0
M  V30 83 C -10.7465 5.0023 0.1966 0
M  V30 84 C -12.0756 5.0523 -0.2188 0
M  V30 85 H -10.5015 5.0750 1.2474 0
M  V30 86 H -12.8665 5.1602 0.5067 0
M  V30 87 H -13.3746 5.0122 -1.9329 0
M  V30 88 N -7.6843 4.5281 -2.3561 0
M  V30 89 H -9.0598 4.6669 -3.9107 0
M  V30 90 H -6.9389 4.4473 -3.0417 0
M  V30 91 Zn 8.3835 3.9692 -0.8594 0 CHG=2
M  V30 92 C 8.3037 8.7875 -1.2282 0
M  V30 93 C 7.1694 8.0034 -1.0609 0
M  V30 94 C 7.3083 6.6195 -0.9537 0
M  V30 95 H 6.1921 8.4584 -1.0175 0
M  V30 96 N 8.5118 6.0230 -1.0081 0
M  V30 97 C 6.1491 5.7612 -0.7906 0
M  V30 98 C 9.5911 6.7761 -1.1660 0
M  V30 99 C 9.5398 8.1612 -1.2801 0
M  V30 100 H 10.5398 6.2584 -1.1999 0
M  V30 101 H 10.4480 8.7293 -1.4065 0
M  V30 102 H 8.2252 9.8604 -1.3160 0
M  V30 103 N 6.2506 4.4871 -0.7562 0
M  V30 104 H 5.1830 6.2637 -0.7330 0
M  V30 105 C 8.5912 3.7945 4.0787 0
M  V30 106 C 8.1748 2.7434 3.2715 0
M  V30 107 C 8.1917 2.9071 1.8883 0
M  V30 108 H 7.8508 1.8108 3.7072 0
M  V30 109 N 8.5815 4.0512 1.3046 0
M  V30 110 C 7.8128 1.8271 0.9918 0
M  V30 111 C 8.9797 5.0472 2.0774 0
M  V30 112 C 9.0078 4.9665 3.4689 0
M  V30 113 H 9.2999 5.9505 1.5781 0
M  V30 114 H 9.3522 5.8048 4.0537 0
M  V30 115 H 8.5965 3.6969 5.1534 0
M  V30 116 N 7.8880 1.9824 -0.2626 0
M  V30 117 H 7.4838 0.9011 1.4680 0
M  V30 118 H 7.6214 1.1886 -0.8355 0
M  V30 119 C 12.9995 2.9222 -2.1754 0
M  V30 120 C 11.9368 3.0638 -3.0602 0
M  V30 121 C 10.6712 3.3478 -2.5528 0
M  V30 122 H 12.0879 2.9579 -4.1236 0
M  V30 123 N 10.4362 3.4931 -1.2361 0
M  V30 124 C 9.5228 3.5080 -3.4334 0
M  V30 125 C 11.4548 3.3626 -0.4008 0
M  V30 126 C 12.7515 3.0755 -0.8204 0
M  V30 127 H 11.2372 3.4968 0.6498 0
M  V30 128 H 13.5467 2.9839 -0.0974 0
M  V30 129 H 13.9927 2.7042 -2.5376 0
M  V30 130 N 8.3673 3.6860 -2.9373 0
M  V30 131 H 9.7182 3.4615 -4.5041 0
M  V30 132 H 7.6202 3.8076 -3.6153 0
M  V30 133 Zn 6.2228 -5.7503 0.2371 0 CHG=2
M  V30 134 C 10.7992 -4.2112 0.7794 0
M  V30 135 C 9.7046 -3.3615 0.7074 0
M  V30 136 C 8.4302 -3.9032 0.5354 0
M  V30 137 H 9.8350 -2.2930 0.7847 0
M  V30 138 N 8.2342 -5.2270 0.4359 0
M  V30 139 C 7.2625 -3.0482 0.4418 0
M  V30 140 C 9.2822 -6.0347 0.5013 0
M  V30 141 C 10.5843 -5.5768 0.6729 0
M  V30 142 H 9.0814 -7.0932 0.4196 0
M  V30 143 H 11.4043 -6.2753 0.7231 0
M  V30 144 H 11.7957 -3.8201 0.9155 0
M  V30 145 N 6.0888 -3.5116 0.2449 0
M  V30 146 H 7.4529 -1.9749 0.5131 0
M  V30 147 C 5.2955 -6.1490 5.0742 0
M  V30 148 C 4.3303 -6.2016 4.0763 0
M  V30 149 C 4.7241 -6.0571 2.7480 0
M  V30 150 H 3.2921 -6.3615 4.3229 0
M  V30 151 N 6.0040 -5.8575 2.3943 0
M  V30 152 C 3.7618 -6.1430 1.6594 0
M  V30 153 C 6.9183 -5.8123 3.3493 0
M  V30 154 C 6.6158 -5.9544 4.7015 0
M  V30 155 H 7.9418 -5.6664 3.0346 0
M  V30 156 H 7.4021 -5.9212 5.4389 0
M  V30 157 H 5.0242 -6.2662 6.1121 0
M  V30 158 N 4.1443 -5.9942 0.4602 0
M  V30 159 H 2.7292 -6.3487 1.9419 0
M  V30 160 H 3.4253 -6.0938 -0.2496 0
M  V30 161 C 6.9408 -10.4731 -0.8828 0
M  V30 162 C 6.8513 -9.4429 -1.8120 0
M  V30 163 C 6.6477 -8.1420 -1.3579 0
M  V30 164 H 6.9374 -9.6453 -2.8687 0
M  V30 165 N 6.5368 -7.8412 -0.0506 0
M  V30 166 C 6.5466 -7.0274 -2.2859 0
M  V30 167 C 6.6277 -8.8274 0.8274 0
M  V30 168 C 6.8275 -10.1569 0.4618 0
M  V30 169 H 6.5446 -8.5551 1.8706 0
M  V30 170 H 6.8963 -10.9216 1.2193 0
M  V30 171 H 7.0979 -11.4919 -1.2030 0
M  V30 172 N 6.3045 -5.8573 -1.8516 0
M  V30 173 H 6.6849 -7.2583 -3.3415 0
M  V30 174 H 6.2604 -5.1356 -2.5651 0
M  V30 175 Zn -7.4747 -3.5692 -0.8742 0 CHG=2
M  V30 176 C -6.5597 -8.2182 -1.8912 0
M  V30 177 C -5.5785 -7.2761 -1.6128 0
M  V30 178 C -5.9553 -5.9617 -1.3386 0
M  V30 179 H -4.5360 -7.5537 -1.6139 0
M  V30 180 N -7.2432 -5.5792 -1.3346 0
M  V30 181 C -4.9603 -4.9412 -1.0684 0
M  V30 182 C -8.1759 -6.4828 -1.6017 0
M  V30 183 C -7.8858 -7.8129 -1.8852 0
M  V30 184 H -9.2004 -6.1376 -1.5875 0
M  V30 185 H -8.6820 -8.5095 -2.0947 0
M  V30 186 H -6.2969 -9.2421 -2.1085 0
M  V30 187 N -5.2761 -3.7129 -0.9157 0
M  V30 188 H -3.9213 -5.2727 -1.0452 0
M  V30 189 C -7.6284 -4.2885 4.0176 0
M  V30 190 C -7.2709 -3.0911 3.4102 0
M  V30 191 C -7.2968 -3.0060 2.0198 0
M  V30 192 H -6.9868 -2.2367 4.0052 0
M  V30 193 N -7.6308 -4.0479 1.2417 0
M  V30 194 C -6.9867 -1.7659 1.3275 0
M  V30 195 C -7.9709 -5.1847 1.8253 0
M  V30 196 C -7.9935 -5.3527 3.2089 0
M  V30 197 H -8.2460 -6.0013 1.1729 0
M  V30 198 H -8.2926 -6.2974 3.6351 0
M  V30 199 H -7.6283 -4.3841 5.0926 0
M  V30 200 N -7.1339 -1.6846 0.0711 0
M  V30 201 H -6.6414 -0.9381 1.9499 0
M  V30 202 H -6.8865 -0.7976 -0.3543 0
M  V30 203 C -12.2413 -3.3475 -2.0075 0
M  V30 204 C -11.2030 -3.1615 -2.9131 0
M  V30 205 C -9.8900 -3.2024 -2.4503 0
M  V30 206 H -11.4084 -2.9926 -3.9592 0
M  V30 207 N -9.5852 -3.4195 -1.1577 0
M  V30 208 C -8.7634 -3.0117 -3.3520 0
M  V30 209 C -10.5799 -3.5944 -0.3019 0
M  V30 210 C -11.9213 -3.5644 -0.6765 0
M  V30 211 H -10.3053 -3.7714 0.7285 0
M  V30 212 H -12.6929 -3.7177 0.0615 0
M  V30 213 H -13.2694 -3.3279 -2.3358 0
M  V30 214 N -7.5818 -2.9904 -2.8862 0
M  V30 215 H -8.9970 -2.8875 -4.4087 0
M  V30 216 H -6.8467 -2.8695 -3.5771 0
M  V30 END ATOM
M  V30 BEGIN BOND
M  V30 1 2 1 2
M  V30 2 1 2 3
M  V30 3 2 3 4
M  V30 4 1 4 5
M  V30 5 2 5 6
M  V30 6 1 6 7
M  V30 7 1 7 8
M  V30 8 2 8 9
M  V30 9 1 9 10
M  V30 10 2 10 11
M  V30 11 1 11 12
M  V30 12 2 12 13
M  V30 13 2 7 14
M  V30 14 1 14 15
M  V30 15 2 15 16
M  V30 16 1 16 17
M  V30 17 2 17 18
M  V30 18 1 18 19
M  V30 19 2 19 20
M  V30 20 1 14 21
M  V30 21 2 21 22
M  V30 22 1 22 23
M  V30 23 2 23 24
M  V30 24 1 24 25
M  V30 25 2 25 26
M  V30 26 1 26 27
M  V30 27 2 27 28
M  V30 28 1 4 29
M  V30 29 2 29 30
M  V30 30 1 30 1
M  V30 31 1 22 5
M  V30 32 1 28 23
M  V30 33 1 13 8
M  V30 34 1 20 15
M  V30 35 1 2 31
M  V30 36 1 3 32
M  V30 37 1 6 33
M  V30 38 1 9 34
M  V30 39 1 10 35
M  V30 40 1 12 36
M  V30 41 1 13 37
M  V30 42 1 16 38
M  V30 43 1 17 39
M  V30 44 1 19 40
M  V30 45 1 20 41
M  V30 46 1 21 42
M  V30 47 1 24 43
M  V30 48 1 25 44
M  V30 49 1 27 45
M  V30 50 1 28 46
M  V30 51 1 29 47
M  V30 52 1 30 48
M  V30 53 1 50 60
M  V30 54 2 50 57
M  V30 55 1 51 50
M  V30 56 2 52 51
M  V30 57 1 52 54
M  V30 58 1 53 51
M  V30 59 2 54 56
M  V30 60 1 55 52
M  V30 61 1 56 57
M  V30 62 1 56 58
M  V30 63 1 57 59
M  V30 64 2 61 55
M  V30 65 1 62 55
M  V30 66 1 63 73
M  V30 67 2 63 70
M  V30 68 1 64 63
M  V30 69 2 65 64
M  V30 70 1 65 67
M  V30 71 1 66 64
M  V30 72 2 67 69
M  V30 73 1 68 65
M  V30 74 1 69 70
M  V30 75 1 69 71
M  V30 76 1 70 72
M  V30 77 2 74 68
M  V30 78 1 75 68
M  V30 79 1 76 74
M  V30 80 1 77 87
M  V30 81 2 77 84
M  V30 82 1 78 77
M  V30 83 2 79 78
M  V30 84 1 79 81
M  V30 85 1 80 78
M  V30 86 2 81 83
M  V30 87 1 82 79
M  V30 88 1 83 84
M  V30 89 1 83 85
M  V30 90 1 84 86
M  V30 91 2 88 82
M  V30 92 1 89 82
M  V30 93 1 90 88
M  V30 94 9 61 49
M  V30 95 9 54 49
M  V30 96 9 74 49
M  V30 97 9 67 49
M  V30 98 9 88 49
M  V30 99 9 81 49
M  V30 100 1 92 102
M  V30 101 2 92 99
M  V30 102 1 93 92
M  V30 103 2 94 93
M  V30 104 1 94 96
M  V30 105 1 95 93
M  V30 106 2 96 98
M  V30 107 1 97 94
M  V30 108 1 98 99
M  V30 109 1 98 100
M  V30 110 1 99 101
M  V30 111 2 103 97
M  V30 112 1 104 97
M  V30 113 1 105 115
M  V30 114 2 105 112
M  V30 115 1 106 105
M  V30 116 2 107 106
M  V30 117 1 107 109
M  V30 118 1 108 106
M  V30 119 2 109 111
M  V30 120 1 110 107
M  V30 121 1 111 112
M  V30 122 1 111 113
M  V30 123 1 112 114
M  V30 124 2 116 110
M  V30 125 1 117 110
M  V30 126 1 118 116
M  V30 127 1 119 129
M  V30 128 2 119 126
M  V30 129 1 120 119
M  V30 130 2 121 120
M  V30 131 1 121 123
M  V30 132 1 122 120
M  V30 133 2 123 125
M  V30 134 1 124 121
M  V30 135 1 125 126
M  V30 136 1 125 127
M  V30 137 1 126 128
M  V30 138 2 130 124
M  V30 139 1 131 124
M  V30 140 1 132 130
M  V30 141 9 103 91
M  V30 142 9 96 91
M  V30 143 9 130 91
M  V30 144 9 123 91
M  V30 145 9 116 91
M  V30 146 9 109 91
M  V30 147 1 134 144
M  V30 148 2 134 141
M  V30 149 1 135 134
M  V30 150 2 136 135
M  V30 151 1 136 138
M  V30 152 1 137 135
M  V30 153 2 138 140
M  V30 154 1 139 136
M  V30 155 1 140 141
M  V30 156 1 140 142
M  V30 157 1 141 143
M  V30 158 2 145 139
M  V30 159 1 146 139
M  V30 160 1 147 157
M  V30 161 2 147 154
M  V30 162 1 148 147
M  V30 163 2 149 148
M  V30 164 1 149 151
M  V30 165 1 150 148
M  V30 166 2 151 153
M  V30 167 1 152 149
M  V30 168 1 153 154
M  V30 169 1 153 155
M  V30 170 1 154 156
M  V30 171 2 158 152
M  V30 172 1 159 152
M  V30 173 1 160 158
M  V30 174 1 161 171
M  V30 175 2 161 168
M  V30 176 1 162 161
M  V30 177 2 163 162
M  V30 178 1 163 165
M  V30 179 1 164 162
M  V30 180 2 165 167
M  V30 181 1 166 163
M  V30 182 1 167 168
M  V30 183 1 167 169
M  V30 184 1 168 170
M  V30 185 2 172 166
M  V30 186 1 173 166
M  V30 187 1 174 172
M  V30 188 9 145 133
M  V30 189 9 138 133
M  V30 190 9 172 133
M  V30 191 9 165 133
M  V30 192 9 158 133
M  V30 193 9 151 133
M  V30 194 1 176 186
M  V30 195 2 176 183
M  V30 196 1 177 176
M  V30 197 2 178 177
M  V30 198 1 178 180
M  V30 199 1 179 177
M  V30 200 2 180 182
M  V30 201 1 181 178
M  V30 202 1 182 183
M  V30 203 1 182 184
M  V30 204 1 183 185
M  V30 205 2 187 181
M  V30 206 1 188 181
M  V30 207 1 189 199
M  V30 208 2 189 196
M  V30 209 1 190 189
M  V30 210 2 191 190
M  V30 211 1 191 193
M  V30 212 1 192 190
M  V30 213 2 193 195
M  V30 214 1 194 191
M  V30 215 1 195 196
M  V30 216 1 195 197
M  V30 217 1 196 198
M  V30 218 2 200 194
M  V30 219 1 201 194
M  V30 220 1 202 200
M  V30 221 1 203 213
M  V30 222 2 203 210
M  V30 223 1 204 203
M  V30 224 2 205 204
M  V30 225 1 205 207
M  V30 226 1 206 204
M  V30 227 2 207 209
M  V30 228 1 208 205
M  V30 229 1 209 210
M  V30 230 1 209 211
M  V30 231 1 210 212
M  V30 232 2 214 208
M  V30 233 1 215 208
M  V30 234 1 216 214
M  V30 235 9 187 175
M  V30 236 9 180 175
M  V30 237 9 214 175
M  V30 238 9 207 175
M  V30 239 9 200 175
M  V30 240 9 193 175
M  V30 241 1 11 103
M  V30 242 1 18 145
M  V30 243 1 26 187
M  V30 244 1 1 61
M  V30 END BOND
M  V30 END CTAB
M  END

$$$$
