
     RDKit          3D

  0  0  0  0  0  0  0  0  0  0999 V3000
M  V30 BEGIN CTAB
M  V30 COUNTS 43 48 0 0 0
M  V30 BEGIN ATOM
M  V30 1 Zn -0.2186 0.2186 0.2186 0 CHG=2
M  V30 2 C 0.9023 4.9268 0.7890 0
M  V30 3 C 1.8410 3.8905 0.7828 0
M  V30 4 C 1.4051 2.5691 0.6071 0
M  V30 5 H 2.8918 4.1191 0.9144 0
M  V30 6 N 0.0688 2.3274 0.4454 0
M  V30 7 C 2.3285 1.5034 0.6003 0
M  V30 8 C -0.8607 3.3184 0.4485 0
M  V30 9 C -0.4557 4.6429 0.6213 0
M  V30 10 H -1.9079 3.0820 0.3203 0
M  V30 11 H -1.1861 5.4415 0.6263 0
M  V30 12 H 1.2277 5.9502 0.9243 0
M  V30 13 N 1.9102 0.2255 0.4338 0
M  V30 14 H 3.3859 1.7012 0.7306 0
M  V30 15 Br 3.0866 -1.2545 0.4242 0
M  V30 16 C -0.7176 -1.0857 4.8828 0
M  V30 17 C -0.6933 -1.9848 3.8122 0
M  V30 18 C -0.5421 -1.4954 2.5065 0
M  V30 19 H -0.7918 -3.0468 4.0026 0
M  V30 20 N -0.4218 -0.1473 2.3139 0
M  V30 21 C -0.5165 -2.3789 1.4076 0
M  V30 22 C -0.4427 0.7446 3.3385 0
M  V30 23 C -0.5920 0.2862 4.6484 0
M  V30 24 H -0.3463 1.8031 3.1402 0
M  V30 25 H -0.6108 0.9861 5.4736 0
M  V30 26 H -0.8341 -1.4526 5.8944 0
M  V30 27 N -0.3714 -1.9165 0.1420 0
M  V30 28 H -0.6127 -3.4462 1.5682 0
M  V30 29 H -0.3495 -2.5488 -0.6880 0
M  V30 30 C -4.9035 0.6271 -1.0417 0
M  V30 31 C -3.8384 0.6634 -1.9470 0
M  V30 32 C -2.5258 0.5323 -1.4702 0
M  V30 33 H -4.0383 0.7930 -3.0039 0
M  V30 34 N -2.3214 0.3713 -0.1281 0
M  V30 35 C -1.4322 0.5687 -2.3598 0
M  V30 36 C -3.3404 0.3335 0.7697 0
M  V30 37 C -4.6569 0.4616 0.3238 0
M  V30 38 H -3.1326 0.2076 1.8232 0
M  V30 39 H -5.4778 0.4339 1.0285 0
M  V30 40 H -5.9202 0.7279 -1.3988 0
M  V30 41 N -0.1599 0.4462 -1.9091 0
M  V30 42 H -1.6022 0.6972 -3.4223 0
M  V30 43 H 0.6666 0.4720 -2.5459 0
M  V30 END ATOM
M  V30 BEGIN BOND
M  V30 1 1 2 12
M  V30 2 2 2 9
M  V30 3 1 3 2
M  V30 4 2 4 3
M  V30 5 1 4 6
M  V30 6 1 5 3
M  V30 7 2 6 8
M  V30 8 1 7 4
M  V30 9 1 8 9
M  V30 10 1 8 10
M  V30 11 1 9 11
M  V30 12 2 13 7
M  V30 13 1 14 7
M  V30 14 1 15 13
M  V30 15 1 16 26
M  V30 16 2 16 23
M  V30 17 1 17 16
M  V30 18 2 18 17
M  V30 19 1 18 20
M  V30 20 1 19 17
M  V30 21 2 20 22
M  V30 22 1 21 18
M  V30 23 1 22 23
M  V30 24 1 22 24
M  V30 25 1 23 25
M  V30 26 2 27 21
M  V30 27 1 28 21
M  V30 28 1 29 27
M  V30 29 1 30 40
M  V30 30 2 30 37
M  V30 31 1 31 30
M  V30 32 2 32 31
M  V30 33 1 32 34
M  V30 34 1 33 31
M  V30 35 2 34 36
M  V30 36 1 35 32
M  V30 37 1 36 37
M  V30 38 1 36 38
M  V30 39 1 37 39
M  V30 40 2 41 35
M  V30 41 1 42 35
M  V30 42 1 43 41
M  V30 43 9 13 1
M  V30 44 9 6 1
M  V30 45 9 27 1
M  V30 46 9 20 1
M  V30 47 9 41 1
M  V30 48 9 34 1
M  V30 END BOND
M  V30 END CTAB
M  END

$$$$
