
     RDKit          3D

  0  0  0  0  0  0  0  0  0  0999 V3000
M  V30 BEGIN CTAB
M  V30 COUNTS 43 48 0 0 0
M  V30 BEGIN ATOM
M  V30 1 Zn -0.2186 0.2186 0.2186 0 CHG=2
M  V30 2 C 1.2548 4.8404 0.0261 0
M  V30 3 C 2.1190 3.7544 0.0221 0
M  V30 4 C 1.5921 2.4700 0.1446 0
M  V30 5 H 3.1840 3.8965 -0.0758 0
M  V30 6 N 0.2698 2.2479 0.2655 0
M  V30 7 C 2.4657 1.3095 0.1501 0
M  V30 8 C -0.5490 3.2910 0.2716 0
M  V30 9 C -0.1049 4.6032 0.1572 0
M  V30 10 H -1.6036 3.0737 0.3733 0
M  V30 11 H -0.8129 5.4164 0.1688 0
M  V30 12 H 1.6356 5.8455 -0.0701 0
M  V30 13 N 1.9557 0.1458 0.2603 0
M  V30 14 H 3.5344 1.4912 0.0617 0
M  V30 15 Br 3.0455 -1.3474 0.2723 0
M  V30 16 C -0.0261 -1.2549 4.8404 0
M  V30 17 C -0.0221 -2.1191 3.7544 0
M  V30 18 C -0.1446 -1.5921 2.4700 0
M  V30 19 H 0.0758 -3.1840 3.8965 0
M  V30 20 N -0.2655 -0.2698 2.2479 0
M  V30 21 C -0.1501 -2.4657 1.3094 0
M  V30 22 C -0.2716 0.5490 3.2910 0
M  V30 23 C -0.1572 0.1049 4.6032 0
M  V30 24 H -0.3733 1.6035 3.0737 0
M  V30 25 H -0.1688 0.8129 5.4164 0
M  V30 26 H 0.0701 -1.6356 5.8455 0
M  V30 27 N -0.2603 -1.9557 0.1458 0
M  V30 28 H -0.0616 -3.5345 1.4912 0
M  V30 29 H -0.2723 -3.0455 -1.3474 0
M  V30 30 C -4.8404 0.0262 -1.2548 0
M  V30 31 C -3.7544 0.0222 -2.1191 0
M  V30 32 C -2.4700 0.1446 -1.5921 0
M  V30 33 H -3.8965 -0.0758 -3.1840 0
M  V30 34 N -2.2479 0.2655 -0.2698 0
M  V30 35 C -1.3094 0.1501 -2.4657 0
M  V30 36 C -3.2910 0.2716 0.5490 0
M  V30 37 C -4.6032 0.1573 0.1049 0
M  V30 38 H -3.0737 0.3733 1.6035 0
M  V30 39 H -5.4164 0.1689 0.8129 0
M  V30 40 H -5.8455 -0.0700 -1.6356 0
M  V30 41 N -0.1458 0.2603 -1.9557 0
M  V30 42 H -1.4912 0.0616 -3.5344 0
M  V30 43 H 1.3474 0.2722 -3.0454 0
M  V30 END ATOM
M  V30 BEGIN BOND
M  V30 1 1 2 12
M  V30 2 2 2 9
M  V30 3 1 3 2
M  V30 4 2 4 3
M  V30 5 1 4 6
M  V30 6 1 5 3
M  V30 7 2 6 8
M  V30 8 1 7 4
M  V30 9 1 8 9
M  V30 10 1 8 10
M  V30 11 1 9 11
M  V30 12 2 13 7
M  V30 13 1 14 7
M  V30 14 1 15 13
M  V30 15 1 16 26
M  V30 16 2 16 23
M  V30 17 1 17 16
M  V30 18 2 18 17
M  V30 19 1 18 20
M  V30 20 1 19 17
M  V30 21 2 20 22
M  V30 22 1 21 18
M  V30 23 1 22 23
M  V30 24 1 22 24
M  V30 25 1 23 25
M  V30 26 2 27 21
M  V30 27 1 28 21
M  V30 28 1 29 27
M  V30 29 1 30 40
M  V30 30 2 30 37
M  V30 31 1 31 30
M  V30 32 2 32 31
M  V30 33 1 32 34
M  V30 34 1 33 31
M  V30 35 2 34 36
M  V30 36 1 35 32
M  V30 37 1 36 37
M  V30 38 1 36 38
M  V30 39 1 37 39
M  V30 40 2 41 35
M  V30 41 1 42 35
M  V30 42 1 43 41
M  V30 43 9 13 1
M  V30 44 9 6 1
M  V30 45 9 27 1
M  V30 46 9 20 1
M  V30 47 9 41 1
M  V30 48 9 34 1
M  V30 END BOND
M  V30 END CTAB
M  END

$$$$
