
     RDKit          3D

  0  0  0  0  0  0  0  0  0  0999 V3000
M  V30 BEGIN CTAB
M  V30 COUNTS 43 48 0 0 0
M  V30 BEGIN ATOM
M  V30 1 Zn -0.2186 0.2186 -0.2186 0 CHG=2
M  V30 2 C 0.9753 4.9046 -0.8228 0
M  V30 3 C 1.8972 3.8533 -0.8149 0
M  V30 4 C 1.4409 2.5402 -0.6291 0
M  V30 5 H 2.9509 4.0641 -0.9529 0
M  V30 6 N 0.1016 2.3211 -0.4595 0
M  V30 7 C 2.3470 1.4597 -0.6203 0
M  V30 8 C -0.8117 3.3270 -0.4641 0
M  V30 9 C -0.3863 4.6437 -0.6469 0
M  V30 10 H -1.8620 3.1083 -0.3294 0
M  V30 11 H -1.1037 5.4539 -0.6532 0
M  V30 12 H 1.3165 5.9218 -0.9659 0
M  V30 13 N 1.9090 0.1898 -0.4441 0
M  V30 14 H 3.4067 1.6397 -0.7569 0
M  V30 15 Br 3.0614 -1.3089 -0.4312 0
M  V30 16 C -0.7613 -1.1052 -4.8724 0
M  V30 17 C -0.7462 -1.9981 -3.7966 0
M  V30 18 C -0.5809 -1.5035 -2.4945 0
M  V30 19 H -0.8628 -3.0595 -3.9801 0
M  V30 20 N -0.4379 -0.1564 -2.3106 0
M  V30 21 C -0.5641 -2.3808 -1.3905 0
M  V30 22 C -0.4495 0.7297 -3.3405 0
M  V30 23 C -0.6125 0.2659 -4.6469 0
M  V30 24 H -0.3351 1.7876 -3.1490 0
M  V30 25 H -0.6241 0.9611 -5.4762 0
M  V30 26 H -0.8886 -1.4761 -5.8812 0
M  V30 27 N -0.4055 -1.9132 -0.1284 0
M  V30 28 H -0.6782 -3.4474 -1.5443 0
M  V30 29 H -0.3897 -2.5409 0.7052 0
M  V30 30 C -4.8901 0.7102 1.0617 0
M  V30 31 C -3.8201 0.7346 1.9616 0
M  V30 32 C -2.5122 0.5795 1.4793 0
M  V30 33 H -4.0127 0.8737 3.0187 0
M  V30 34 N -2.3169 0.4073 0.1373 0
M  V30 35 C -1.4137 0.6036 2.3635 0
M  V30 36 C -3.3408 0.3807 -0.7554 0
M  V30 37 C -4.6528 0.5327 -0.3039 0
M  V30 38 H -3.1402 0.2452 -1.8091 0
M  V30 39 H -5.4775 0.5141 -1.0045 0
M  V30 40 H -5.9033 0.8295 1.4231 0
M  V30 41 N -0.1458 0.4579 1.9074 0
M  V30 42 H -1.5764 0.7411 3.4259 0
M  V30 43 H 0.6841 0.4741 2.5400 0
M  V30 END ATOM
M  V30 BEGIN BOND
M  V30 1 1 2 12
M  V30 2 2 2 9
M  V30 3 1 3 2
M  V30 4 2 4 3
M  V30 5 1 4 6
M  V30 6 1 5 3
M  V30 7 2 6 8
M  V30 8 1 7 4
M  V30 9 1 8 9
M  V30 10 1 8 10
M  V30 11 1 9 11
M  V30 12 2 13 7
M  V30 13 1 14 7
M  V30 14 1 15 13
M  V30 15 1 16 26
M  V30 16 2 16 23
M  V30 17 1 17 16
M  V30 18 2 18 17
M  V30 19 1 18 20
M  V30 20 1 19 17
M  V30 21 2 20 22
M  V30 22 1 21 18
M  V30 23 1 22 23
M  V30 24 1 22 24
M  V30 25 1 23 25
M  V30 26 2 27 21
M  V30 27 1 28 21
M  V30 28 1 29 27
M  V30 29 1 30 40
M  V30 30 2 30 37
M  V30 31 1 31 30
M  V30 32 2 32 31
M  V30 33 1 32 34
M  V30 34 1 33 31
M  V30 35 2 34 36
M  V30 36 1 35 32
M  V30 37 1 36 37
M  V30 38 1 36 38
M  V30 39 1 37 39
M  V30 40 2 41 35
M  V30 41 1 42 35
M  V30 42 1 43 41
M  V30 43 9 13 1
M  V30 44 9 6 1
M  V30 45 9 41 1
M  V30 46 9 34 1
M  V30 47 9 27 1
M  V30 48 9 20 1
M  V30 END BOND
M  V30 END CTAB
M  END

$$$$
