
  xtb     10192012543D
 xtb: 6.3.1 (2faf18d)
 43 47  0     0  0            999 V2000
   -0.3873    0.2781   -0.2896 Zn  0  0  0  0  0  0  0  0  0  0  0  0
    1.0887    4.9251   -0.7859 C   0  0  0  0  0  0  0  0  0  0  0  0
    1.9577    3.8437   -0.7635 C   0  0  0  0  0  0  0  0  0  0  0  0
    1.4328    2.5567   -0.6539 C   0  0  0  0  0  0  0  0  0  0  0  0
    3.0246    3.9912   -0.8269 H   0  0  0  0  0  0  0  0  0  0  0  0
    0.1106    2.3265   -0.5711 N   0  0  0  0  0  0  0  0  0  0  0  0
    2.3137    1.4014   -0.6295 C   0  0  0  0  0  0  0  0  0  0  0  0
   -0.7120    3.3648   -0.5972 C   0  0  0  0  0  0  0  0  0  0  0  0
   -0.2733    4.6798   -0.7030 C   0  0  0  0  0  0  0  0  0  0  0  0
   -1.7681    3.1418   -0.5339 H   0  0  0  0  0  0  0  0  0  0  0  0
   -0.9862    5.4884   -0.7195 H   0  0  0  0  0  0  0  0  0  0  0  0
    1.4672    5.9323   -0.8669 H   0  0  0  0  0  0  0  0  0  0  0  0
    1.8099    0.2389   -0.4961 N   0  0  0  0  0  0  0  0  0  0  0  0
    3.3806    1.5898   -0.7290 H   0  0  0  0  0  0  0  0  0  0  0  0
    2.9051   -1.2531   -0.4748 Br  0  0  0  0  0  0  0  0  0  0  0  0
   -0.5448   -1.1980   -4.9469 C   0  0  0  0  0  0  0  0  0  0  0  0
   -0.4848   -2.0496   -3.8512 C   0  0  0  0  0  0  0  0  0  0  0  0
   -0.4955   -1.5012   -2.5722 C   0  0  0  0  0  0  0  0  0  0  0  0
   -0.4289   -3.1189   -3.9840 H   0  0  0  0  0  0  0  0  0  0  0  0
   -0.5624   -0.1768   -2.3584 N   0  0  0  0  0  0  0  0  0  0  0  0
   -0.4326   -2.3446   -1.3836 C   0  0  0  0  0  0  0  0  0  0  0  0
   -0.6239    0.6293   -3.4061 C   0  0  0  0  0  0  0  0  0  0  0  0
   -0.6186    0.1666   -4.7185 C   0  0  0  0  0  0  0  0  0  0  0  0
   -0.6819    1.6888   -3.1976 H   0  0  0  0  0  0  0  0  0  0  0  0
   -0.6700    0.8656   -5.5379 H   0  0  0  0  0  0  0  0  0  0  0  0
   -0.5350   -1.5926   -5.9511 H   0  0  0  0  0  0  0  0  0  0  0  0
   -0.4330   -1.8060   -0.2371 N   0  0  0  0  0  0  0  0  0  0  0  0
   -0.3879   -3.4207   -1.5472 H   0  0  0  0  0  0  0  0  0  0  0  0
   -0.3751   -2.4461    0.5497 H   0  0  0  0  0  0  0  0  0  0  0  0
   -4.9984    0.7058    1.2599 C   0  0  0  0  0  0  0  0  0  0  0  0
   -3.8857    0.6841    2.0913 C   0  0  0  0  0  0  0  0  0  0  0  0
   -2.6201    0.5928    1.5192 C   0  0  0  0  0  0  0  0  0  0  0  0
   -3.9963    0.7329    3.1636 H   0  0  0  0  0  0  0  0  0  0  0  0
   -2.4361    0.5291    0.1896 N   0  0  0  0  0  0  0  0  0  0  0  0
   -1.4164    0.5534    2.3433 C   0  0  0  0  0  0  0  0  0  0  0  0
   -3.4998    0.5526   -0.5974 C   0  0  0  0  0  0  0  0  0  0  0  0
   -4.8004    0.6395   -0.1098 C   0  0  0  0  0  0  0  0  0  0  0  0
   -3.3130    0.5020   -1.6613 H   0  0  0  0  0  0  0  0  0  0  0  0
   -5.6341    0.6536   -0.7935 H   0  0  0  0  0  0  0  0  0  0  0  0
   -5.9925    0.7725    1.6741 H   0  0  0  0  0  0  0  0  0  0  0  0
   -0.2819    0.4359    1.7913 N   0  0  0  0  0  0  0  0  0  0  0  0
   -1.5601    0.6244    3.4212 H   0  0  0  0  0  0  0  0  0  0  0  0
    0.5146    0.4045    2.4214 H   0  0  0  0  0  0  0  0  0  0  0  0
  2  3  4  0  0  0  0
  3  4  4  0  0  0  0
  3  5  1  0  0  0  0
  1  6  1  0  0  0  0
  4  6  4  0  0  0  0
  4  7  1  0  0  0  0
  6  8  4  0  0  0  0
  2  9  4  0  0  0  0
  8  9  4  0  0  0  0
  8 10  1  0  0  0  0
  9 11  1  0  0  0  0
  2 12  1  0  0  0  0
  7 13  2  0  0  0  0
  7 14  1  0  0  0  0
 13 15  1  0  0  0  0
 16 17  4  0  0  0  0
 17 18  4  0  0  0  0
 17 19  1  0  0  0  0
  1 20  1  0  0  0  0
 18 20  4  0  0  0  0
 18 21  1  0  0  0  0
 20 22  4  0  0  0  0
 16 23  4  0  0  0  0
 22 23  4  0  0  0  0
 22 24  1  0  0  0  0
 23 25  1  0  0  0  0
 16 26  1  0  0  0  0
  1 27  1  0  0  0  0
 21 27  2  0  0  0  0
 21 28  1  0  0  0  0
 27 29  1  0  0  0  0
 30 31  4  0  0  0  0
 31 32  4  0  0  0  0
 31 33  1  0  0  0  0
  1 34  1  0  0  0  0
 32 34  4  0  0  0  0
 32 35  1  0  0  0  0
 34 36  4  0  0  0  0
 30 37  4  0  0  0  0
 36 37  4  0  0  0  0
 36 38  1  0  0  0  0
 37 39  1  0  0  0  0
 30 40  1  0  0  0  0
  1 41  1  0  0  0  0
 35 41  2  0  0  0  0
 35 42  1  0  0  0  0
 41 43  1  0  0  0  0
M  CHG   1   1   2
M  END
