
     RDKit          3D

  0  0  0  0  0  0  0  0  0  0999 V3000
M  V30 BEGIN CTAB
M  V30 COUNTS 56 60 0 0 0
M  V30 BEGIN ATOM
M  V30 1 Br -5.6411 -5.5209 -0.1045 0
M  V30 2 C -4.7708 -3.8121 -0.0757 0
M  V30 3 C -5.3453 -2.6892 -0.6161 0
M  V30 4 C -4.7391 -1.4509 -0.6074 0
M  V30 5 C -3.4808 -1.3156 -0.0248 0
M  V30 6 N -2.8167 -0.0587 0.0324 0
M  V30 7 C -3.5004 1.1947 0.0782 0
M  V30 8 C -4.7476 1.3083 0.6357 0
M  V30 9 C -5.3850 2.5258 0.6439 0
M  V30 10 C -4.8267 3.6677 0.1100 0
M  V30 11 Br -5.7171 5.3510 0.1258 0
M  V30 12 C -3.5610 3.5140 -0.4465 0
M  V30 13 C -2.9060 2.3046 -0.4652 0
M  V30 14 C -1.4053 -0.0582 0.0235 0
M  V30 15 C -0.6754 0.9141 0.6906 0
M  V30 16 C 0.6899 0.9335 0.6716 0
M  V30 17 C 1.3742 -0.0271 -0.0210 0
M  V30 18 N 2.8150 0.0483 -0.0274 0
M  V30 19 C 3.4758 1.2976 0.0526 0
M  V30 20 C 2.8430 2.4166 -0.4477 0
M  V30 21 C 3.4087 3.6810 -0.3943 0
M  V30 22 C 4.6484 3.8469 0.1753 0
M  V30 23 Br 5.4892 5.5596 0.2835 0
M  V30 24 C 5.2638 2.7177 0.6688 0
M  V30 25 C 4.7203 1.4534 0.6264 0
M  V30 26 C 3.5073 -1.1900 -0.0971 0
M  V30 27 C 4.7586 -1.2515 -0.6760 0
M  V30 28 C 5.4611 -2.4417 -0.7390 0
M  V30 29 C 4.8993 -3.5998 -0.2107 0
M  V30 30 Br 5.8708 -5.2397 -0.2993 0
M  V30 31 C 3.6513 -3.5701 0.3737 0
M  V30 32 C 2.9956 -2.3720 0.4131 0
M  V30 33 C 0.6964 -0.9995 -0.6896 0
M  V30 34 C -0.6782 -1.0057 -0.6611 0
M  V30 35 C -2.8838 -2.4353 0.5261 0
M  V30 36 C -3.5267 -3.6567 0.4953 0
M  V30 37 H -6.3258 -2.7988 -1.0689 0
M  V30 38 H -5.2246 -0.5731 -1.0549 0
M  V30 39 H -5.2395 0.4438 1.0796 0
M  V30 40 H -6.3764 2.6271 1.0843 0
M  V30 41 H -3.0817 4.4039 -0.8831 0
M  V30 42 H -1.9132 2.2709 -0.9316 0
M  V30 43 H -1.2071 1.6780 1.2485 0
M  V30 44 H 1.1767 1.7429 1.2383 0
M  V30 45 H 1.8570 2.3926 -0.9286 0
M  V30 46 H 2.8934 4.5483 -0.7937 0
M  V30 47 H 6.2437 2.8403 1.1204 0
M  V30 48 H 5.2301 0.5855 1.0307 0
M  V30 49 H 5.2640 -0.4011 -1.1156 0
M  V30 50 H 6.4440 -2.5212 -1.1864 0
M  V30 51 H 3.2697 -4.5015 0.7651 0
M  V30 52 H 2.0039 -2.3667 0.8911 0
M  V30 53 H 1.2188 -1.7657 -1.2503 0
M  V30 54 H -1.2559 -1.7726 -1.1972 0
M  V30 55 H -1.8951 -2.3560 0.9990 0
M  V30 56 H -3.0439 -4.5167 0.9299 0
M  V30 END ATOM
M  V30 BEGIN BOND
M  V30 1 1 1 2
M  V30 2 2 2 3
M  V30 3 1 3 4
M  V30 4 2 4 5
M  V30 5 1 5 6
M  V30 6 1 6 7
M  V30 7 2 7 8
M  V30 8 1 8 9
M  V30 9 2 9 10
M  V30 10 1 10 11
M  V30 11 1 10 12
M  V30 12 2 12 13
M  V30 13 1 6 14
M  V30 14 2 14 15
M  V30 15 1 15 16
M  V30 16 2 16 17
M  V30 17 1 17 18
M  V30 18 1 18 19
M  V30 19 2 19 20
M  V30 20 1 20 21
M  V30 21 2 21 22
M  V30 22 1 22 23
M  V30 23 1 22 24
M  V30 24 2 24 25
M  V30 25 1 18 26
M  V30 26 2 26 27
M  V30 27 1 27 28
M  V30 28 2 28 29
M  V30 29 1 29 30
M  V30 30 1 29 31
M  V30 31 2 31 32
M  V30 32 1 17 33
M  V30 33 2 33 34
M  V30 34 1 5 35
M  V30 35 2 35 36
M  V30 36 1 36 2
M  V30 37 1 13 7
M  V30 38 1 34 14
M  V30 39 1 25 19
M  V30 40 1 32 26
M  V30 41 1 3 37
M  V30 42 1 4 38
M  V30 43 1 8 39
M  V30 44 1 9 40
M  V30 45 1 12 41
M  V30 46 1 13 42
M  V30 47 1 15 43
M  V30 48 1 16 44
M  V30 49 1 20 45
M  V30 50 1 21 46
M  V30 51 1 24 47
M  V30 52 1 25 48
M  V30 53 1 27 49
M  V30 54 1 28 50
M  V30 55 1 31 51
M  V30 56 1 32 52
M  V30 57 1 33 53
M  V30 58 1 34 54
M  V30 59 1 35 55
M  V30 60 1 36 56
M  V30 END BOND
M  V30 END CTAB
M  END

$$$$
