
     RDKit          3D

  0  0  0  0  0  0  0  0  0  0999 V3000
M  V30 BEGIN CTAB
M  V30 COUNTS 72 80 0 0 0
M  V30 BEGIN ATOM
M  V30 1 Br 9.1781 0.4783 2.9235 0
M  V30 2 C 7.4247 0.3088 2.2239 0
M  V30 3 C 6.9038 1.2429 1.3510 0
M  V30 4 C 5.6059 1.0819 0.8597 0
M  V30 5 C 4.8931 -0.0007 1.2609 0
M  V30 6 C 3.5155 -0.2604 0.8401 0
M  V30 7 C 3.1208 -1.5679 0.6868 0
M  V30 8 C 1.8326 -1.9292 0.3561 0
M  V30 9 C 1.5060 -3.2704 0.2344 0
M  V30 10 C 0.2080 -3.6064 -0.0782 0
M  V30 11 C -0.1240 -5.0131 -0.2401 0
M  V30 12 C -1.1098 -5.4679 -1.0864 0
M  V30 13 C -1.3842 -6.7990 -1.2443 0
M  V30 14 C -0.6769 -7.7551 -0.5543 0
M  V30 15 Br -1.0675 -9.6139 -0.7711 0
M  V30 16 C 0.3148 -7.3346 0.3015 0
M  V30 17 C 0.5821 -5.9813 0.4506 0
M  V30 18 C -0.7499 -2.6163 -0.2680 0
M  V30 19 C -0.4133 -1.2944 -0.1460 0
M  V30 20 C -1.3683 -0.2971 -0.3509 0
M  V30 21 C -2.6636 -0.5985 -0.6745 0
M  V30 22 C -3.6116 0.4178 -0.8922 0
M  V30 23 C -4.9813 0.0476 -1.1864 0
M  V30 24 C -5.7963 0.7898 -1.9747 0
M  V30 25 C -7.1194 0.4303 -2.2525 0
M  V30 26 C -7.6593 -0.7203 -1.7223 0
M  V30 27 Br -9.4376 -1.2996 -2.0431 0
M  V30 28 C -6.7986 -1.4705 -0.9111 0
M  V30 29 C -5.5094 -1.1195 -0.6411 0
M  V30 30 C -3.1441 1.6960 -0.7615 0
M  V30 31 C -1.8575 2.0344 -0.4394 0
M  V30 32 C -1.4765 3.3613 -0.3104 0
M  V30 33 C -0.2081 3.7405 0.0292 0
M  V30 34 C 0.1969 5.1417 0.0661 0
M  V30 35 C -0.7019 6.1471 -0.0795 0
M  V30 36 C -0.3572 7.5050 -0.0206 0
M  V30 37 C 0.9595 7.8100 0.1980 0
M  V30 38 Br 1.5000 9.6427 0.2438 0
M  V30 39 C 1.8949 6.8270 0.3530 0
M  V30 40 C 1.5116 5.4667 0.2858 0
M  V30 41 C 0.7031 2.7227 0.2455 0
M  V30 42 C 0.3426 1.3936 0.1196 0
M  V30 43 C 1.2773 0.3855 0.3186 0
M  V30 44 C 2.5799 0.7398 0.6514 0
M  V30 45 C 0.9002 -0.9523 0.1705 0
M  V30 46 C -0.9466 1.0227 -0.2264 0
M  V30 47 C 5.3990 -0.9595 2.1407 0
M  V30 48 C 6.6893 -0.7754 2.6145 0
M  V30 49 H 7.4805 2.1033 1.0385 0
M  V30 50 H 5.2154 1.8291 0.1723 0
M  V30 51 H 3.8215 -2.3906 0.8200 0
M  V30 52 H 2.2625 -4.0321 0.3831 0
M  V30 53 H -1.6526 -4.6911 -1.6225 0
M  V30 54 H -2.1626 -7.1276 -1.9202 0
M  V30 55 H 0.8733 -8.0783 0.8498 0
M  V30 56 H 1.3805 -5.6961 1.1486 0
M  V30 57 H -1.7414 -2.9137 -0.5070 0
M  V30 58 H -2.9800 -1.6105 -0.7664 0
M  V30 59 H -5.4486 1.7264 -2.4359 0
M  V30 60 H -7.7471 1.0586 -2.8872 0
M  V30 61 H -7.2246 -2.3773 -0.4919 0
M  V30 62 H -4.8427 -1.6931 -0.0144 0
M  V30 63 H -3.8542 2.5224 -0.9298 0
M  V30 64 H -2.2276 4.1205 -0.4935 0
M  V30 65 H -1.7392 5.9491 -0.2508 0
M  V30 66 H -1.0540 8.3086 -0.1481 0
M  V30 67 H 2.9327 7.0475 0.5356 0
M  V30 68 H 2.2944 4.7583 0.4180 0
M  V30 69 H 1.6860 3.0185 0.5188 0
M  V30 70 H 2.9050 1.7614 0.7695 0
M  V30 71 H 4.8488 -1.8187 2.4709 0
M  V30 72 H 7.0969 -1.5058 3.2923 0
M  V30 END ATOM
M  V30 BEGIN BOND
M  V30 1 1 1 2
M  V30 2 2 2 3
M  V30 3 1 3 4
M  V30 4 2 4 5
M  V30 5 1 5 6
M  V30 6 2 6 7
M  V30 7 1 7 8
M  V30 8 2 8 9
M  V30 9 1 9 10
M  V30 10 1 10 11
M  V30 11 2 11 12
M  V30 12 1 12 13
M  V30 13 2 13 14
M  V30 14 1 14 15
M  V30 15 1 14 16
M  V30 16 2 16 17
M  V30 17 2 10 18
M  V30 18 1 18 19
M  V30 19 1 19 20
M  V30 20 2 20 21
M  V30 21 1 21 22
M  V30 22 1 22 23
M  V30 23 2 23 24
M  V30 24 1 24 25
M  V30 25 2 25 26
M  V30 26 1 26 27
M  V30 27 1 26 28
M  V30 28 2 28 29
M  V30 29 2 22 30
M  V30 30 1 30 31
M  V30 31 1 31 32
M  V30 32 2 32 33
M  V30 33 1 33 34
M  V30 34 2 34 35
M  V30 35 1 35 36
M  V30 36 2 36 37
M  V30 37 1 37 38
M  V30 38 1 37 39
M  V30 39 2 39 40
M  V30 40 1 33 41
M  V30 41 2 41 42
M  V30 42 1 42 43
M  V30 43 2 43 44
M  V30 44 1 43 45
M  V30 45 1 42 46
M  V30 46 1 5 47
M  V30 47 2 47 48
M  V30 48 1 48 2
M  V30 49 1 44 6
M  V30 50 1 45 8
M  V30 51 1 17 11
M  V30 52 2 45 19
M  V30 53 1 46 20
M  V30 54 1 29 23
M  V30 55 2 46 31
M  V30 56 1 40 34
M  V30 57 1 3 49
M  V30 58 1 4 50
M  V30 59 1 7 51
M  V30 60 1 9 52
M  V30 61 1 12 53
M  V30 62 1 13 54
M  V30 63 1 16 55
M  V30 64 1 17 56
M  V30 65 1 18 57
M  V30 66 1 21 58
M  V30 67 1 24 59
M  V30 68 1 25 60
M  V30 69 1 28 61
M  V30 70 1 29 62
M  V30 71 1 30 63
M  V30 72 1 32 64
M  V30 73 1 35 65
M  V30 74 1 36 66
M  V30 75 1 39 67
M  V30 76 1 40 68
M  V30 77 1 41 69
M  V30 78 1 44 70
M  V30 79 1 47 71
M  V30 80 1 48 72
M  V30 END BOND
M  V30 END CTAB
M  END

$$$$
