
     RDKit          3D

  0  0  0  0  0  0  0  0  0  0999 V3000
M  V30 BEGIN CTAB
M  V30 COUNTS 66 71 0 0 0
M  V30 BEGIN ATOM
M  V30 1 Br 8.5936 -4.7670 -1.0150 0
M  V30 2 C 7.4427 -3.3122 -0.5597 0
M  V30 3 C 7.8505 -2.0041 -0.7378 0
M  V30 4 C 7.0305 -0.9495 -0.4126 0
M  V30 5 C 5.7524 -1.1481 0.1111 0
M  V30 6 N 4.9317 -0.0290 0.4485 0
M  V30 7 C 5.5831 1.1615 0.8626 0
M  V30 8 C 5.0206 2.3693 0.5856 0
M  V30 9 C 5.6348 3.5428 0.9983 0
M  V30 10 C 6.8224 3.4584 1.6923 0
M  V30 11 Br 7.6960 5.0589 2.2713 0
M  V30 12 C 7.4213 2.2498 1.9897 0
M  V30 13 C 6.7553 1.0985 1.5474 0
M  V30 14 C 3.5098 -0.0573 0.3491 0
M  V30 15 C 2.8478 -0.8926 -0.5469 0
M  V30 16 C 1.4622 -0.8932 -0.6366 0
M  V30 17 C 0.6995 -0.0864 0.1409 0
M  V30 18 C -0.7664 -0.0847 0.0348 0
M  V30 19 C -1.3629 -0.3641 -1.1823 0
M  V30 20 C -2.7356 -0.3312 -1.3015 0
M  V30 21 C -3.5708 -0.0250 -0.2431 0
M  V30 22 N -4.9734 -0.0189 -0.4459 0
M  V30 23 C -5.5306 -1.0530 -1.2391 0
M  V30 24 C -6.6465 -0.7716 -1.9895 0
M  V30 25 C -7.2857 -1.7250 -2.7553 0
M  V30 26 C -6.7685 -3.0022 -2.7520 0
M  V30 27 Br -7.6062 -4.3781 -3.7748 0
M  V30 28 C -5.6451 -3.2962 -2.0011 0
M  V30 29 C -5.0136 -2.3376 -1.2413 0
M  V30 30 C -5.8185 0.9818 0.0906 0
M  V30 31 C -7.1506 0.7751 0.3606 0
M  V30 32 C -7.9279 1.8208 0.8566 0
M  V30 33 C -7.3883 3.0743 1.0882 0
M  V30 34 Br -8.4523 4.5208 1.7726 0
M  V30 35 C -6.0621 3.2941 0.8239 0
M  V30 36 C -5.2959 2.2613 0.3344 0
M  V30 37 C -2.9756 0.2514 0.9628 0
M  V30 38 C -1.6028 0.2192 1.0892 0
M  V30 39 C 1.3291 0.7567 1.0471 0
M  V30 40 C 2.7244 0.7533 1.1321 0
M  V30 41 C 5.3529 -2.4488 0.2865 0
M  V30 42 C 6.1772 -3.5228 -0.0410 0
M  V30 43 H 8.8509 -1.8703 -1.1480 0
M  V30 44 H 7.3886 0.0678 -0.5757 0
M  V30 45 H 4.0834 2.5082 0.0262 0
M  V30 46 H 5.1828 4.5031 0.7777 0
M  V30 47 H 8.3505 2.2000 2.5321 0
M  V30 48 H 7.2208 0.1656 1.7819 0
M  V30 49 H 3.4393 -1.5328 -1.1694 0
M  V30 50 H 0.9645 -1.5486 -1.3412 0
M  V30 51 H -0.7156 -0.6040 -2.0199 0
M  V30 52 H -3.1937 -0.5578 -2.2770 0
M  V30 53 H -7.1010 0.2290 -2.0453 0
M  V30 54 H -8.1664 -1.5141 -3.3463 0
M  V30 55 H -5.2280 -4.3112 -1.9922 0
M  V30 56 H -4.1360 -2.5277 -0.6443 0
M  V30 57 H -7.6159 -0.2126 0.1998 0
M  V30 58 H -8.9627 1.6261 1.0545 0
M  V30 59 H -5.5796 4.2716 0.9872 0
M  V30 60 H -4.2433 2.3809 0.1092 0
M  V30 61 H -3.6142 0.4895 1.7912 0
M  V30 62 H -1.1198 0.4399 2.0533 0
M  V30 63 H 0.7616 1.4098 1.6837 0
M  V30 64 H 3.1575 1.4284 1.8731 0
M  V30 65 H 4.3650 -2.6489 0.6989 0
M  V30 66 H 5.8529 -4.5412 0.0999 0
M  V30 END ATOM
M  V30 BEGIN BOND
M  V30 1 1 1 2
M  V30 2 2 2 3
M  V30 3 1 3 4
M  V30 4 2 4 5
M  V30 5 1 5 6
M  V30 6 1 6 7
M  V30 7 2 7 8
M  V30 8 1 8 9
M  V30 9 2 9 10
M  V30 10 1 10 11
M  V30 11 1 10 12
M  V30 12 2 12 13
M  V30 13 1 6 14
M  V30 14 2 14 15
M  V30 15 1 15 16
M  V30 16 2 16 17
M  V30 17 1 17 18
M  V30 18 2 18 19
M  V30 19 1 19 20
M  V30 20 2 20 21
M  V30 21 1 21 22
M  V30 22 1 22 23
M  V30 23 2 23 24
M  V30 24 1 24 25
M  V30 25 2 25 26
M  V30 26 1 26 27
M  V30 27 1 26 28
M  V30 28 2 28 29
M  V30 29 1 22 30
M  V30 30 2 30 31
M  V30 31 1 31 32
M  V30 32 2 32 33
M  V30 33 1 33 34
M  V30 34 1 33 35
M  V30 35 2 35 36
M  V30 36 1 21 37
M  V30 37 2 37 38
M  V30 38 1 17 39
M  V30 39 2 39 40
M  V30 40 1 5 41
M  V30 41 2 41 42
M  V30 42 1 42 2
M  V30 43 1 13 7
M  V30 44 1 40 14
M  V30 45 1 38 18
M  V30 46 1 29 23
M  V30 47 1 36 30
M  V30 48 1 3 43
M  V30 49 1 4 44
M  V30 50 1 8 45
M  V30 51 1 9 46
M  V30 52 1 12 47
M  V30 53 1 13 48
M  V30 54 1 15 49
M  V30 55 1 16 50
M  V30 56 1 19 51
M  V30 57 1 20 52
M  V30 58 1 24 53
M  V30 59 1 25 54
M  V30 60 1 28 55
M  V30 61 1 29 56
M  V30 62 1 31 57
M  V30 63 1 32 58
M  V30 64 1 35 59
M  V30 65 1 36 60
M  V30 66 1 37 61
M  V30 67 1 38 62
M  V30 68 1 39 63
M  V30 69 1 40 64
M  V30 70 1 41 65
M  V30 71 1 42 66
M  V30 END BOND
M  V30 END CTAB
M  END

$$$$
