
     RDKit          3D

  0  0  0  0  0  0  0  0  0  0999 V3000
M  V30 BEGIN CTAB
M  V30 COUNTS 52 56 0 0 0
M  V30 BEGIN ATOM
M  V30 1 Br 6.1486 0.3393 -4.3182 0
M  V30 2 C 4.5802 0.2564 -3.2081 0
M  V30 3 C 3.8448 1.3995 -2.9569 0
M  V30 4 C 2.7255 1.2961 -2.1547 0
M  V30 5 C 2.3116 0.1006 -1.5944 0
M  V30 6 C 1.1196 0.0358 -0.7502 0
M  V30 7 C -0.1000 0.3882 -1.3103 0
M  V30 8 C -1.2329 0.3291 -0.5165 0
M  V30 9 C -2.5504 0.6837 -1.0334 0
M  V30 10 C -3.0926 -0.0308 -2.0840 0
M  V30 11 C -4.3398 0.2903 -2.5874 0
M  V30 12 C -5.0691 1.3411 -2.0411 0
M  V30 13 Br -6.7840 1.8180 -2.6988 0
M  V30 14 C -4.5523 2.0728 -0.9904 0
M  V30 15 C -3.3107 1.7148 -0.5266 0
M  V30 16 C -1.1385 -0.0775 0.8166 0
M  V30 17 C -2.3340 -0.1309 1.6227 0
M  V30 18 C -2.4707 0.6529 2.7696 0
M  V30 19 C -3.6081 0.6103 3.5480 0
M  V30 20 C -4.6606 -0.2165 3.2170 0
M  V30 21 Br -6.2458 -0.2907 4.2826 0
M  V30 22 C -4.5437 -1.0093 2.0724 0
M  V30 23 C -3.3958 -0.9586 1.2972 0
M  V30 24 C 0.1058 -0.4222 1.3377 0
M  V30 25 C 1.2428 -0.3648 0.5474 0
M  V30 26 C 2.5641 -0.7157 1.0478 0
M  V30 27 C 2.8844 -1.9732 1.5264 0
M  V30 28 C 4.1486 -2.2799 1.9959 0
M  V30 29 C 5.1287 -1.3026 1.9894 0
M  V30 30 Br 6.8826 -1.6982 2.6317 0
M  V30 31 C 4.8406 -0.0518 1.5224 0
M  V30 32 C 3.5784 0.2205 1.0640 0
M  V30 33 C 3.0873 -1.0053 -1.8821 0
M  V30 34 C 4.2062 -0.9619 -2.6704 0
M  V30 35 H 4.1510 2.3499 -3.3866 0
M  V30 36 H 2.1249 2.1690 -1.9357 0
M  V30 37 H -0.1962 0.7049 -2.3370 0
M  V30 38 H -2.4899 -0.8453 -2.4831 0
M  V30 39 H -4.7385 -0.2806 -3.4042 0
M  V30 40 H -5.1075 2.8929 -0.5549 0
M  V30 41 H -2.8980 2.2812 0.2950 0
M  V30 42 H -1.6928 1.3232 3.0934 0
M  V30 43 H -3.7105 1.2186 4.4355 0
M  V30 44 H -5.3394 -1.6745 1.7684 0
M  V30 45 H -3.3604 -1.6028 0.4108 0
M  V30 46 H 0.1709 -0.7305 2.3520 0
M  V30 47 H 2.1194 -2.7127 1.5244 0
M  V30 48 H 4.4062 -3.2600 2.3713 0
M  V30 49 H 5.6195 0.6898 1.5279 0
M  V30 50 H 3.3781 1.2185 0.7001 0
M  V30 51 H 2.7832 -1.9426 -1.4568 0
M  V30 52 H 4.8093 -1.8584 -2.8858 0
M  V30 END ATOM
M  V30 BEGIN BOND
M  V30 1 1 1 2
M  V30 2 2 2 3
M  V30 3 1 3 4
M  V30 4 2 4 5
M  V30 5 1 5 6
M  V30 6 2 6 7
M  V30 7 1 7 8
M  V30 8 1 8 9
M  V30 9 2 9 10
M  V30 10 1 10 11
M  V30 11 2 11 12
M  V30 12 1 12 13
M  V30 13 1 12 14
M  V30 14 2 14 15
M  V30 15 2 8 16
M  V30 16 1 16 17
M  V30 17 2 17 18
M  V30 18 1 18 19
M  V30 19 2 19 20
M  V30 20 1 20 21
M  V30 21 1 20 22
M  V30 22 2 22 23
M  V30 23 1 16 24
M  V30 24 2 24 25
M  V30 25 1 25 26
M  V30 26 2 26 27
M  V30 27 1 27 28
M  V30 28 2 28 29
M  V30 29 1 29 30
M  V30 30 1 29 31
M  V30 31 2 31 32
M  V30 32 1 5 33
M  V30 33 2 33 34
M  V30 34 1 34 2
M  V30 35 1 25 6
M  V30 36 1 32 26
M  V30 37 1 15 9
M  V30 38 1 23 17
M  V30 39 1 3 35
M  V30 40 1 4 36
M  V30 41 1 7 37
M  V30 42 1 10 38
M  V30 43 1 11 39
M  V30 44 1 14 40
M  V30 45 1 15 41
M  V30 46 1 18 42
M  V30 47 1 19 43
M  V30 48 1 22 44
M  V30 49 1 23 45
M  V30 50 1 24 46
M  V30 51 1 27 47
M  V30 52 1 28 48
M  V30 53 1 31 49
M  V30 54 1 32 50
M  V30 55 1 33 51
M  V30 56 1 34 52
M  V30 END BOND
M  V30 END CTAB
M  END

$$$$
