
     RDKit          3D

  0  0  0  0  0  0  0  0  0  0999 V3000
M  V30 BEGIN CTAB
M  V30 COUNTS 14 14 0 0 0
M  V30 BEGIN ATOM
M  V30 1 C -0.8775 -1.7360 0.4967 0
M  V30 2 C -1.5338 -0.6119 -0.0079 0
M  V30 3 C -0.8235 0.5864 -0.1671 0
M  V30 4 H -2.5826 -0.6733 -0.2715 0
M  V30 5 N 0.4961 0.6393 0.1717 0
M  V30 6 C -1.4989 1.7832 -0.6981 0
M  V30 7 C 1.1515 -0.4464 0.6647 0
M  V30 8 C 0.4737 -1.6554 0.8359 0
M  V30 9 H 2.1990 -0.3710 0.9239 0
M  V30 10 H 0.9913 -2.5214 1.2277 0
M  V30 11 H -1.4147 -2.6669 0.6243 0
M  V30 12 N -0.8518 2.8823 -0.8454 0
M  V30 13 H -2.5510 1.7338 -0.9661 0
M  V30 14 Br -1.7011 4.4152 -1.5212 0
M  V30 END ATOM
M  V30 BEGIN BOND
M  V30 1 1 1 11
M  V30 2 2 1 8
M  V30 3 1 2 1
M  V30 4 2 3 2
M  V30 5 1 3 5
M  V30 6 1 4 2
M  V30 7 2 5 7
M  V30 8 1 6 3
M  V30 9 1 7 8
M  V30 10 1 7 9
M  V30 11 1 8 10
M  V30 12 2 12 6
M  V30 13 1 13 6
M  V30 14 1 14 12
M  V30 END BOND
M  V30 END CTAB
M  END

$$$$
